REMARK  5 active torsions:
REMARK  status: ('A' for Active; 'I' for Inactive)
REMARK    1  A    between atoms: O_2  and  C_3 
REMARK    2  A    between atoms: C_5  and  C_3 
REMARK    3  A    between atoms: C_7  and  C_8 
REMARK       I    between atoms: N_15  and  C_16 
REMARK    4  A    between atoms: C_16  and  C_18 
REMARK    5  A    between atoms: C_18  and  N_19 
ROOT
HETATM    1  C   UNK N   1      -2.259   1.841   1.367  0.00  0.00     0.104 C 
HETATM    2  C   UNK N   1      -2.838   1.391   0.024  0.00  0.00     0.027 C 
HETATM    3  C   UNK N   1      -2.837  -0.136  -0.073  0.00  0.00     0.037 C 
HETATM    4  C   UNK N   1      -1.375  -0.580  -0.146  0.00  0.00     0.135 C 
HETATM    5  N   UNK N   1      -0.568   0.117   0.849  0.00  0.00    -0.349 N 
HETATM    6  C   UNK N   1       0.790   0.120   0.749  0.00  0.00     0.239 C 
HETATM    7  O   UNK N   1       1.464   0.725   1.573  0.00  0.00    -0.271 OA
HETATM    8  C   UNK N   1      -1.228   0.842   1.926  0.00  0.00     0.140 C 
ENDROOT
BRANCH   6   9
HETATM    9  C   UNK N   1       1.474  -0.607  -0.385  0.00  0.00     0.257 C 
BRANCH   9  10
HETATM   10  N   UNK N   1       2.920  -0.462  -0.311  0.00  0.00    -0.232 N 
HETATM   11  N   UNK N   1       3.609   0.514  -0.891  0.00  0.00    -0.278 N 
HETATM   12  C   UNK N   1       4.904   0.310  -0.555  0.00  0.00     0.130 A 
ATOM     13  HN  UNK N   1       3.238   1.265  -1.472  1.00  0.00     0.189 HD
HETATM   14  C   UNK N   1       5.996   1.087  -0.922  0.00  0.00     0.050 A 
HETATM   15  N   UNK N   1       5.047  -0.775   0.225  0.00  0.00    -0.258 N 
HETATM   16  C   UNK N   1       7.257   0.689  -0.442  0.00  0.00     0.005 A 
HETATM   17  C   UNK N   1       7.383  -0.455   0.376  0.00  0.00     0.018 A 
HETATM   18  C   UNK N   1       6.240  -1.198   0.710  0.00  0.00     0.103 A 
HETATM   19  C   UNK N   1       3.793  -1.250   0.367  0.00  0.00     0.349 A 
HETATM   20  O   UNK N   1       3.487  -2.234   1.018  0.00  0.00    -0.244 OA
ENDBRANCH   9  10
ENDBRANCH   6   9
BRANCH   3  21
HETATM   21  C   UNK N   1      -3.659  -0.658  -1.219  0.00  0.00    -0.052 A 
HETATM   22  C   UNK N   1      -4.406   0.211  -2.031  0.00  0.00     0.007 A 
HETATM   23  C   UNK N   1      -5.195  -0.291  -3.067  0.00  0.00     0.001 A 
HETATM   24  C   UNK N   1      -5.241  -1.667  -3.303  0.00  0.00     0.000 A 
HETATM   25  C   UNK N   1      -4.502  -2.540  -2.499  0.00  0.00     0.001 A 
HETATM   26  C   UNK N   1      -3.720  -2.038  -1.455  0.00  0.00     0.007 A 
ENDBRANCH   3  21
BRANCH   1  27
HETATM   27  C   UNK N   1      -3.397   1.996   2.322  0.00  0.00     0.264 C 
HETATM   28  O   UNK N   1      -3.638   3.095   2.799  0.00  0.00    -0.265 OA
BRANCH  27  29
HETATM   29  O   UNK N   1      -4.186   0.927   2.602  0.00  0.00    -0.326 OA
HETATM   30  C   UNK N   1      -5.315   1.025   3.379  0.00  0.00     0.213 C 
ENDBRANCH  27  29
ENDBRANCH   1  27
TORSDOF 5
