REMARK  4 active torsions:
REMARK  status: ('A' for Active; 'I' for Inactive)
REMARK    1  A    between atoms: C_3  and  C_2 
REMARK       I    between atoms: N_11  and  C_12 
REMARK    2  A    between atoms: C_12  and  C_14 
REMARK    3  A    between atoms: C_14  and  N_15 
REMARK    4  A    between atoms: C_19  and  C_21 
ROOT
HETATM    1  N   UNK N   1       0.806   0.236  -0.323  0.00  0.00    -0.259 N 
HETATM    2  C   UNK N   1       1.300   1.412  -0.716  0.00  0.00     0.326 A 
HETATM    3  O   UNK N   1       0.796   2.108  -1.583  0.00  0.00    -0.247 OA
HETATM    4  N   UNK N   1       2.398   1.775  -0.023  0.00  0.00    -0.321 N 
HETATM    5  C   UNK N   1       2.702   0.749   0.971  0.00  0.00     0.140 A 
HETATM    6  C   UNK N   1       2.454   1.316   2.367  0.00  0.00     0.054 C 
HETATM    7  C   UNK N   1       1.600  -0.241   0.650  0.00  0.00     0.261 A 
HETATM    8  O   UNK N   1       1.407  -1.303   1.224  0.00  0.00    -0.270 OA
HETATM    9  H   UNK N   1       2.914   2.601  -0.164  0.00  0.00     0.165 HD
ENDROOT
BRANCH   1  10
HETATM   10  C   UNK N   1      -0.419  -0.367  -0.813  0.00  0.00     0.239 C 
BRANCH  10  11
HETATM   11  C   UNK N   1      -1.538  -0.222   0.204  0.00  0.00     0.239 C 
HETATM   12  N   UNK N   1      -2.804  -0.651  -0.070  0.00  0.00    -0.339 N 
HETATM   13  C   UNK N   1      -3.141  -1.215  -1.363  0.00  0.00     0.147 C 
HETATM   14  C   UNK N   1      -3.868  -0.455   0.906  0.00  0.00     0.137 C 
HETATM   15  C   UNK N   1      -4.179  -0.322  -2.070  0.00  0.00     0.148 C 
HETATM   16  N   UNK N   1      -5.115   0.275  -1.114  0.00  0.00    -0.357 N 
HETATM   17  C   UNK N   1      -6.236   0.950  -1.413  0.00  0.00     0.091 A 
HETATM   18  C   UNK N   1      -5.009   0.225   0.221  0.00  0.00     0.034 A 
HETATM   19  C   UNK N   1      -6.863   1.331  -0.232  0.00  0.00     0.019 A 
HETATM   20  C   UNK N   1      -6.078   0.860   0.815  0.00  0.00     0.028 A 
HETATM   21  O   UNK N   1      -1.300   0.304   1.284  0.00  0.00    -0.271 OA
BRANCH  14  22
HETATM   22  C   UNK N   1      -4.354  -1.781   1.480  0.00  0.00     0.027 C 
HETATM   23  C   UNK N   1      -3.255  -2.463   2.272  0.00  0.00     0.007 C 
ENDBRANCH  14  22
ENDBRANCH  10  11
ENDBRANCH   1  10
BRANCH   5  24
HETATM   24  C   UNK N   1       4.116   0.217   0.804  0.00  0.00    -0.021 A 
HETATM   25  C   UNK N   1       4.543  -0.318  -0.423  0.00  0.00     0.013 A 
HETATM   26  C   UNK N   1       5.861  -0.773  -0.576  0.00  0.00     0.043 A 
HETATM   27  C   UNK N   1       6.760  -0.694   0.493  0.00  0.00     0.116 A 
HETATM   28  F   UNK N   1       8.036  -1.126   0.345  0.00  0.00    -0.206 F 
HETATM   29  C   UNK N   1       6.345  -0.167   1.715  0.00  0.00     0.043 A 
HETATM   30  C   UNK N   1       5.034   0.285   1.869  0.00  0.00     0.013 A 
ENDBRANCH   5  24
TORSDOF 4
