REMARK  2 active torsions:
REMARK  status: ('A' for Active; 'I' for Inactive)
REMARK    1  A    between atoms: C_2  and  C_4 
REMARK    2  A    between atoms: C_7  and  N_8 
REMARK       I    between atoms: N_8  and  C_9 
REMARK       I    between atoms: C_9  and  N_11 
ROOT
HETATM    1  N   UNK N   1      -0.536  -0.898   0.887  0.00  0.00    -0.338 N 
HETATM    2  C   UNK N   1       0.333   0.151   0.951  0.00  0.00     0.318 C 
HETATM    3  O   UNK N   1      -0.072   1.304   0.855  0.00  0.00    -0.247 OA
HETATM    4  N   UNK N   1       1.667  -0.075   1.072  0.00  0.00    -0.334 N 
HETATM    5  C   UNK N   1       2.192  -1.432   1.079  0.00  0.00     0.130 C 
HETATM    6  C   UNK N   1       3.596  -1.492   0.460  0.00  0.00     0.052 C 
HETATM    7  C   UNK N   1       3.739  -0.469  -0.686  0.00  0.00     0.128 C 
HETATM    8  O   UNK N   1       5.007  -0.501  -1.308  0.00  0.00    -0.385 OA
HETATM    9  C   UNK N   1       5.992  -0.113  -0.366  0.00  0.00     0.168 C 
HETATM   10  C   UNK N   1       5.760   1.292   0.220  0.00  0.00     0.027 C 
HETATM   11  C   UNK N   1       4.504   1.943  -0.347  0.00  0.00     0.011 C 
HETATM   12  C   UNK N   1       3.326   0.976  -0.310  0.00  0.00     0.033 C 
HETATM   13  C   UNK N   1       2.591   1.035   1.024  0.00  0.00     0.134 C 
HETATM   14  H   UNK N   1      -0.145  -1.797   0.977  0.00  0.00     0.164 HD
ENDROOT
BRANCH   1  15
HETATM   15  C   UNK N   1      -1.979  -0.833   0.699  0.00  0.00     0.086 C 
HETATM   16  C   UNK N   1      -2.318  -1.414  -0.673  0.00  0.00     0.026 C 
HETATM   17  C   UNK N   1      -3.826  -1.416  -0.905  0.00  0.00     0.007 C 
HETATM   18  C   UNK N   1      -4.378   0.003  -0.785  0.00  0.00    -0.011 C 
HETATM   19  C   UNK N   1      -4.077   0.568   0.606  0.00  0.00     0.007 C 
HETATM   20  C   UNK N   1      -2.579   0.572   0.857  0.00  0.00     0.026 C 
BRANCH  18  21
HETATM   21  C   UNK N   1      -5.874   0.035  -1.098  0.00  0.00    -0.019 C 
HETATM   22  C   UNK N   1      -6.700  -0.699  -0.050  0.00  0.00     0.010 C 
HETATM   23  C   UNK N   1      -6.367   1.464  -1.231  0.00  0.00     0.010 C 
ENDBRANCH  18  21
ENDBRANCH   1  15
TORSDOF 2
