REMARK  4 active torsions:
REMARK  status: ('A' for Active; 'I' for Inactive)
REMARK    1  A    between atoms: C_2  and  C_3 
REMARK       I    between atoms: C_2  and  N_10 
REMARK    2  A    between atoms: C_13  and  S_14 
REMARK    3  A    between atoms: S_14  and  N_17 
REMARK    4  A    between atoms: N_17  and  C_18 
ROOT
HETATM    1  O   UNK N   1      -1.581  -1.442  -2.271  0.00  0.00    -0.267 OA
HETATM    2  C   UNK N   1      -1.460  -0.559  -1.436  0.00  0.00     0.256 C 
HETATM    3  N   UNK N   1      -0.267   0.075  -1.276  0.00  0.00    -0.347 N 
HETATM    4  C   UNK N   1       0.880  -0.216  -2.090  0.00  0.00     0.127 C 
HETATM    5  C   UNK N   1       1.926   0.771  -1.595  0.00  0.00     0.043 C 
HETATM    6  C   UNK N   1       1.483   1.126  -0.179  0.00  0.00     0.143 C 
HETATM    7  C   UNK N   1      -0.032   1.055  -0.255  0.00  0.00     0.147 C 
ENDROOT
BRANCH   2   8
HETATM    8  C   UNK N   1      -2.631  -0.165  -0.637  0.00  0.00     0.063 A 
HETATM    9  C   UNK N   1      -3.009  -0.799   0.583  0.00  0.00     0.050 A 
HETATM   10  C   UNK N   1      -4.155  -0.223   1.143  0.00  0.00     0.077 A 
HETATM   11 Cl   UNK N   1      -4.938  -0.696   2.635  0.00  0.00    -0.076 Cl
HETATM   12  S   UNK N   1      -4.647   1.004   0.144  0.00  0.00    -0.065 SA
HETATM   13  C   UNK N   1      -3.475   0.883  -1.014  0.00  0.00     0.091 A 
HETATM   14 Cl   UNK N   1      -3.336   1.886  -2.447  0.00  0.00    -0.075 Cl
ENDBRANCH   2   8
BRANCH   6  15
HETATM   15  S   UNK N   1       2.082  -0.201   0.925  0.00  0.00     0.215 S 
HETATM   16  O   UNK N   1       1.308  -1.520   0.770  0.00  0.00    -0.211 OA
HETATM   17  O   UNK N   1       1.939   0.089   2.427  0.00  0.00    -0.211 OA
BRANCH  15  18
HETATM   18  N   UNK N   1       3.767  -0.680   0.710  0.00  0.00    -0.215 NA
HETATM   19  H   UNK N   1       3.932  -0.996  -0.246  0.00  0.00     0.140 HD
BRANCH  18  20
HETATM   20  C   UNK N   1       4.582   0.481   1.014  0.00  0.00     0.071 A 
HETATM   21  C   UNK N   1       6.031   0.166   0.710  0.00  0.00     0.022 A 
HETATM   22  C   UNK N   1       5.533   0.130   2.138  0.00  0.00     0.022 A 
ENDBRANCH  18  20
ENDBRANCH  15  18
ENDBRANCH   6  15
TORSDOF 4
