REMARK  5 active torsions:
REMARK  status: ('A' for Active; 'I' for Inactive)
REMARK    1  A    between atoms: C_6  and  C_7 
REMARK    2  A    between atoms: C_7  and  N_8 
REMARK    3  A    between atoms: N_8  and  C_9 
REMARK    4  A    between atoms: N_12  and  C_13 
REMARK    5  A    between atoms: C_13  and  C_14 
ROOT
HETATM    1  C   UNK N   1      -0.477   0.715   0.580  0.00  0.00     0.117 A 
HETATM    2  C   UNK N   1      -0.549   0.356  -0.757  0.00  0.00     0.068 A 
HETATM    3  C   UNK N   1       0.496  -0.537  -0.925  0.00  0.00     0.114 A 
HETATM    4  N   UNK N   1       1.123  -0.671   0.259  0.00  0.00    -0.297 N 
HETATM    5  N   UNK N   1       0.540   0.078   1.177  0.00  0.00    -0.284 N 
ATOM      6  HN  UNK N   1       0.813   0.158   2.157  1.00  0.00     0.188 HD
ENDROOT
BRANCH   1   7
HETATM    7  N   UNK N   1      -1.359   1.598   1.253  0.00  0.00    -0.371 N 
HETATM    8  H   UNK N   1      -1.192   1.820   2.198  0.00  0.00     0.161 HD
BRANCH   7   9
HETATM    9  C   UNK N   1      -2.499   2.179   0.579  0.00  0.00     0.168 C 
BRANCH   9  10
HETATM   10  C   UNK N   1      -3.493   1.121   0.206  0.00  0.00     0.017 A 
HETATM   11  C   UNK N   1      -3.541  -0.203   0.677  0.00  0.00     0.104 A 
HETATM   12  N   UNK N   1      -4.532  -0.974   0.108  0.00  0.00    -0.363 N 
HETATM   13  C   UNK N   1      -5.260  -0.285  -0.806  0.00  0.00     0.047 A 
ATOM     14  HN  UNK N   1      -4.699  -1.951   0.347  1.00  0.00     0.165 HD
HETATM   15  C   UNK N   1      -6.380  -0.868  -1.589  0.00  0.00     0.076 C 
HETATM   16  S   UNK N   1      -4.697   1.263  -0.915  0.00  0.00    -0.079 SA
ENDBRANCH   9  10
ENDBRANCH   7   9
ENDBRANCH   1   7
BRANCH   4  17
HETATM   17  C   UNK N   1       2.268  -1.529   0.517  0.00  0.00     0.186 C 
BRANCH  17  18
HETATM   18  C   UNK N   1       3.534  -0.803   0.213  0.00  0.00    -0.039 A 
HETATM   19  C   UNK N   1       4.208  -0.133   1.238  0.00  0.00     0.009 A 
HETATM   20  C   UNK N   1       5.399   0.547   0.965  0.00  0.00     0.001 A 
HETATM   21  C   UNK N   1       5.918   0.554  -0.333  0.00  0.00     0.000 A 
HETATM   22  C   UNK N   1       5.247  -0.119  -1.359  0.00  0.00     0.001 A 
HETATM   23  C   UNK N   1       4.054  -0.798  -1.087  0.00  0.00     0.009 A 
ENDBRANCH  17  18
ENDBRANCH   4  17
TORSDOF 5
