REMARK  5 active torsions:
REMARK  status: ('A' for Active; 'I' for Inactive)
REMARK    1  A    between atoms: C_7  and  C_8 
REMARK    2  A    between atoms: C_11  and  N_12 
REMARK    3  A    between atoms: N_12  and  C_13 
REMARK    4  A    between atoms: C_13  and  C_14 
REMARK    5  A    between atoms: C_19  and  C_20 
ROOT
HETATM    1  N   UNK N   1      -0.562  -1.440   1.773  0.00  0.00    -0.386 N 
HETATM    2  H   UNK N   1      -0.620  -2.157   2.445  0.00  0.00     0.160 HD
ENDROOT
BRANCH   1   3
HETATM    3  C   UNK N   1       0.739  -1.009   1.388  0.00  0.00     0.028 A 
HETATM    4  C   UNK N   1       1.749  -0.952   2.356  0.00  0.00     0.030 A 
HETATM    5  C   UNK N   1       3.047  -0.566   2.005  0.00  0.00     0.018 A 
HETATM    6  C   UNK N   1       3.358  -0.273   0.671  0.00  0.00     0.017 A 
HETATM    7  C   UNK N   1       2.352  -0.337  -0.300  0.00  0.00     0.018 A 
HETATM    8  C   UNK N   1       1.049  -0.685   0.061  0.00  0.00     0.030 A 
BRANCH   6   9
HETATM    9  C   UNK N   1       4.731   0.086   0.293  0.00  0.00     0.174 A 
HETATM   10  N   UNK N   1       5.161   0.251  -0.974  0.00  0.00    -0.277 N 
HETATM   11  N   UNK N   1       6.444   0.565  -0.901  0.00  0.00    -0.281 N 
ATOM     12  HN  UNK N   1       4.605   0.152  -1.824  1.00  0.00     0.189 HD
HETATM   13  C   UNK N   1       6.760   0.587   0.407  0.00  0.00     0.136 A 
ATOM     14  HN  UNK N   1       7.072   0.753  -1.683  1.00  0.00     0.189 HD
HETATM   15  C   UNK N   1       8.105   0.922   0.943  0.00  0.00     0.099 C 
HETATM   16  O   UNK N   1       5.714   0.290   1.138  0.00  0.00    -0.278 OA
ENDBRANCH   6   9
ENDBRANCH   1   3
BRANCH   1  17
HETATM   17  C   UNK N   1      -1.810  -0.909   1.255  0.00  0.00     0.162 C 
BRANCH  17  18
HETATM   18  C   UNK N   1      -2.060  -1.057  -0.221  0.00  0.00     0.005 A 
HETATM   19  C   UNK N   1      -1.335  -1.767  -1.157  0.00  0.00     0.118 A 
HETATM   20  N   UNK N   1      -1.875  -1.531  -2.371  0.00  0.00    -0.311 N 
HETATM   21  N   UNK N   1      -2.906  -0.709  -2.238  0.00  0.00    -0.300 N 
HETATM   22  H   UNK N   1      -1.555  -1.911  -3.221  0.00  0.00     0.186 HD
HETATM   23  C   UNK N   1      -3.054  -0.413  -0.934  0.00  0.00     0.070 A 
ATOM     24  HN  UNK N   1      -3.489  -0.358  -2.998  1.00  0.00     0.187 HD
BRANCH  23  25
HETATM   25  C   UNK N   1      -4.134   0.455  -0.399  0.00  0.00     0.031 A 
HETATM   26  C   UNK N   1      -4.484   0.377   0.959  0.00  0.00     0.017 A 
HETATM   27  C   UNK N   1      -5.527   1.151   1.473  0.00  0.00     0.001 A 
HETATM   28  C   UNK N   1      -6.224   2.024   0.638  0.00  0.00     0.003 A 
HETATM   29  C   UNK N   1      -5.877   2.125  -0.711  0.00  0.00     0.043 A 
HETATM   30  C   UNK N   1      -4.843   1.341  -1.236  0.00  0.00     0.129 A 
HETATM   31  F   UNK N   1      -4.518   1.473  -2.545  0.00  0.00    -0.205 F 
ENDBRANCH  23  25
ENDBRANCH  17  18
ENDBRANCH   1  17
TORSDOF 5
