REMARK  4 active torsions:
REMARK  status: ('A' for Active; 'I' for Inactive)
REMARK    1  A    between atoms: O_2  and  C_3 
REMARK       I    between atoms: C_3  and  N_5 
REMARK    2  A    between atoms: C_8  and  N_9 
REMARK    3  A    between atoms: N_9  and  C_10 
REMARK    4  A    between atoms: C_10  and  C_11 
ROOT
HETATM    1  C   UNK N   1      -0.502  -0.637   0.687  0.00  0.00     0.311 C 
ENDROOT
BRANCH   1   2
HETATM    2  N   UNK N   1       0.159   0.240  -0.274  0.00  0.00     0.092 N 
HETATM    3  H   UNK N   1      -0.027  -0.071  -1.227  0.00  0.00     0.316 HD
BRANCH   2   4
HETATM    4  C   UNK N   1       1.595   0.223  -0.002  0.00  0.00     0.224 C 
HETATM    5  C   UNK N   1       1.930   0.581   1.452  0.00  0.00     0.055 C 
HETATM    6  C   UNK N   1       3.417   0.323   1.709  0.00  0.00     0.130 C 
HETATM    7  N   UNK N   1       4.205   0.548   0.508  0.00  0.00    -0.328 N 
HETATM    8  C   UNK N   1       5.328  -0.181   0.269  0.00  0.00     0.362 C 
HETATM    9  C   UNK N   1       3.749   1.521  -0.466  0.00  0.00     0.130 C 
HETATM   10  O   UNK N   1       5.690  -1.034   1.072  0.00  0.00    -0.238 OA
HETATM   11  C   UNK N   1       2.323   1.191  -0.944  0.00  0.00     0.055 C 
BRANCH   8  12
HETATM   12  O   UNK N   1       6.046   0.037  -0.863  0.00  0.00    -0.309 OA
HETATM   13  C   UNK N   1       7.195  -0.660  -1.155  0.00  0.00     0.215 C 
ENDBRANCH   8  12
ENDBRANCH   2   4
ENDBRANCH   1   2
BRANCH   1  14
HETATM   14  C   UNK N   1      -1.931  -0.904   0.340  0.00  0.00    -0.003 A 
HETATM   15  C   UNK N   1      -2.373  -2.231   0.347  0.00  0.00     0.014 A 
HETATM   16  C   UNK N   1      -3.713  -2.535   0.096  0.00  0.00     0.044 A 
HETATM   17  C   UNK N   1      -4.630  -1.516  -0.166  0.00  0.00     0.128 A 
HETATM   18  F   UNK N   1      -5.930  -1.830  -0.394  0.00  0.00    -0.205 F 
HETATM   19  C   UNK N   1      -4.202  -0.181  -0.189  0.00  0.00     0.030 A 
HETATM   20  C   UNK N   1      -5.101   0.854  -0.457  0.00  0.00     0.018 A 
HETATM   21  C   UNK N   1      -2.847   0.133   0.068  0.00  0.00     0.053 A 
HETATM   22  C   UNK N   1      -4.655   2.175  -0.473  0.00  0.00     0.018 A 
HETATM   23  C   UNK N   1      -3.310   2.449  -0.213  0.00  0.00     0.088 A 
HETATM   24  N   UNK N   1      -2.443   1.435   0.054  0.00  0.00    -0.365 N 
ATOM     25  HN  UNK N   1      -1.466   1.655   0.248  1.00  0.00     0.165 HD
ENDBRANCH   1  14
TORSDOF 4
