REMARK  5 active torsions:
REMARK  status: ('A' for Active; 'I' for Inactive)
REMARK    1  A    between atoms: C_5  and  C_6 
REMARK    2  A    between atoms: C_7  and  C_8 
REMARK       I    between atoms: C_8  and  N_10 
REMARK    3  A    between atoms: C_13  and  S_14 
REMARK    4  A    between atoms: S_14  and  N_17 
REMARK    5  A    between atoms: N_17  and  C_18 
ROOT
HETATM    1  C   UNK N   1      -0.731  -1.248   0.705  0.00  0.00     0.243 C 
HETATM    2  O   UNK N   1      -0.842  -2.133   1.545  0.00  0.00    -0.268 OA
HETATM    3  N   UNK N   1       0.497  -0.886   0.251  0.00  0.00    -0.347 N 
HETATM    4  C   UNK N   1       0.683   0.185  -0.693  0.00  0.00     0.127 C 
HETATM    5  C   UNK N   1       2.186   0.307  -0.832  0.00  0.00     0.043 C 
HETATM    6  C   UNK N   1       2.735  -0.390   0.404  0.00  0.00     0.143 C 
HETATM    7  C   UNK N   1       1.713  -1.452   0.751  0.00  0.00     0.147 C 
ENDROOT
BRANCH   1   8
HETATM    8  C   UNK N   1      -1.924  -0.531   0.224  0.00  0.00     0.075 C 
HETATM    9  C   UNK N   1      -3.148  -0.729   0.712  0.00  0.00     0.017 C 
BRANCH   9  10
HETATM   10  C   UNK N   1      -4.286   0.062   0.217  0.00  0.00    -0.036 A 
HETATM   11  C   UNK N   1      -5.558  -0.154   0.755  0.00  0.00     0.012 A 
HETATM   12  C   UNK N   1      -6.648   0.593   0.299  0.00  0.00     0.007 A 
HETATM   13  C   UNK N   1      -6.469   1.561  -0.695  0.00  0.00    -0.062 A 
HETATM   14  C   UNK N   1      -7.629   2.350  -1.183  0.00  0.00     0.048 C 
HETATM   15  C   UNK N   1      -5.200   1.784  -1.233  0.00  0.00     0.007 A 
HETATM   16  C   UNK N   1      -4.111   1.039  -0.778  0.00  0.00     0.012 A 
ENDBRANCH   9  10
ENDBRANCH   1   8
BRANCH   6  17
HETATM   17  S   UNK N   1       4.370  -1.082   0.069  0.00  0.00     0.215 S 
HETATM   18  O   UNK N   1       5.036  -1.735   1.290  0.00  0.00    -0.211 OA
HETATM   19  O   UNK N   1       4.358  -2.222  -0.959  0.00  0.00    -0.211 OA
BRANCH  17  20
HETATM   20  N   UNK N   1       5.573   0.057  -0.543  0.00  0.00    -0.215 NA
HETATM   21  H   UNK N   1       5.280   0.443  -1.440  0.00  0.00     0.140 HD
BRANCH  20  22
HETATM   22  C   UNK N   1       5.708   1.111   0.448  0.00  0.00     0.071 A 
HETATM   23  C   UNK N   1       6.516   2.249  -0.139  0.00  0.00     0.022 A 
HETATM   24  C   UNK N   1       7.171   1.265   0.805  0.00  0.00     0.022 A 
ENDBRANCH  20  22
ENDBRANCH  17  20
ENDBRANCH   6  17
TORSDOF 5
