REMARK  9 active torsions:
REMARK  status: ('A' for Active; 'I' for Inactive)
REMARK    1  A    between atoms: C_2  and  C_3 
REMARK    2  A    between atoms: C_3  and  C_6 
REMARK    3  A    between atoms: C_6  and  C_7 
REMARK       I    between atoms: C_7  and  N_9 
REMARK    4  A    between atoms: N_9  and  C_10 
REMARK    5  A    between atoms: C_10  and  C_12 
REMARK    6  A    between atoms: C_12  and  C_13 
REMARK    7  A    between atoms: C_13  and  N_15 
REMARK       I    between atoms: N_15  and  C_16 
REMARK    8  A    between atoms: C_16  and  C_18 
REMARK    9  A    between atoms: C_20  and  C_21 
ROOT
HETATM    1  C   UNK N   1      -0.036  -1.362  -0.873  0.00  0.00     0.082 C 
HETATM    2  C   UNK N   1      -0.333  -2.295  -2.039  0.00  0.00     0.032 C 
ENDROOT
BRANCH   1   3
HETATM    3  C   UNK N   1      -0.881  -0.119  -1.064  0.00  0.00     0.049 C 
BRANCH   3   4
HETATM    4  C   UNK N   1      -1.311   0.533   0.244  0.00  0.00     0.082 C 
HETATM    5  C   UNK N   1      -0.176   0.790   1.223  0.00  0.00     0.032 C 
BRANCH   4   6
HETATM    6  N   UNK N   1      -2.363  -0.229   0.867  0.00  0.00    -0.357 N 
HETATM    7  C   UNK N   1      -3.643   0.203   0.816  0.00  0.00     0.218 C 
HETATM    8  O   UNK N   1      -3.920   1.224   0.200  0.00  0.00    -0.274 OA
HETATM    9  H   UNK N   1      -2.148  -1.070   1.332  0.00  0.00     0.162 HD
BRANCH   7  10
HETATM   10  C   UNK N   1      -4.718  -0.582   1.525  0.00  0.00     0.115 C 
BRANCH  10  11
HETATM   11  C   UNK N   1      -6.126   0.031   1.484  0.00  0.00    -0.023 C 
HETATM   12  C   UNK N   1      -7.051  -0.883   2.275  0.00  0.00     0.019 C 
HETATM   13  C   UNK N   1      -6.639   0.076   0.054  0.00  0.00     0.019 C 
BRANCH  11  14
HETATM   14  C   UNK N   1      -6.093   1.438   2.042  0.00  0.00    -0.028 C 
HETATM   15  C   UNK N   1      -6.768   1.829   3.125  0.00  0.00     0.007 C 
ENDBRANCH  11  14
ENDBRANCH  10  11
ENDBRANCH   7  10
ENDBRANCH   4   6
ENDBRANCH   3   4
ENDBRANCH   1   3
BRANCH   1  16
HETATM   16  N   UNK N   1       1.353  -0.934  -0.796  0.00  0.00    -0.351 N 
HETATM   17  C   UNK N   1       2.436  -1.536  -1.354  0.00  0.00     0.277 C 
HETATM   18  O   UNK N   1       2.334  -2.600  -1.947  0.00  0.00    -0.265 OA
HETATM   19  H   UNK N   1       1.527  -0.114  -0.281  0.00  0.00     0.163 HD
BRANCH  17  20
HETATM   20  C   UNK N   1       3.751  -0.897  -1.245  0.00  0.00     0.168 A 
HETATM   21  C   UNK N   1       4.032   0.306  -0.622  0.00  0.00     0.072 A 
HETATM   22  C   UNK N   1       5.394   0.446  -0.810  0.00  0.00     0.039 A 
HETATM   23  N   UNK N   1       5.865  -0.609  -1.505  0.00  0.00    -0.264 N 
HETATM   24  O   UNK N   1       4.857  -1.390  -1.748  0.00  0.00    -0.232 OA
ATOM     25  HN  UNK N   1       6.833  -0.765  -1.787  1.00  0.00     0.194 HD
BRANCH  22  26
HETATM   26  C   UNK N   1       6.230   1.595  -0.327  0.00  0.00     0.029 C 
HETATM   27  C   UNK N   1       7.692   1.426  -0.708  0.00  0.00     0.016 C 
HETATM   28  C   UNK N   1       6.127   1.728   1.181  0.00  0.00     0.016 C 
ENDBRANCH  22  26
ENDBRANCH  17  20
ENDBRANCH   1  16
TORSDOF 9
