REMARK  4 active torsions:
REMARK  status: ('A' for Active; 'I' for Inactive)
REMARK    1  A    between atoms: C_3  and  C_2 
REMARK       I    between atoms: N_11  and  C_12 
REMARK    2  A    between atoms: C_12  and  C_14 
REMARK    3  A    between atoms: C_14  and  N_15 
REMARK    4  A    between atoms: C_19  and  C_21 
ROOT
HETATM    1  N   UNK N   1      -0.040  -0.940  -0.367  0.00  0.00    -0.259 N 
HETATM    2  C   UNK N   1      -0.072  -0.604  -1.659  0.00  0.00     0.326 A 
HETATM    3  O   UNK N   1       0.865  -0.762  -2.426  0.00  0.00    -0.247 OA
HETATM    4  N   UNK N   1      -1.266  -0.114  -2.043  0.00  0.00    -0.321 N 
HETATM    5  C   UNK N   1      -2.190  -0.163  -0.912  0.00  0.00     0.140 A 
HETATM    6  C   UNK N   1      -2.734   1.222  -0.598  0.00  0.00     0.054 C 
HETATM    7  C   UNK N   1      -1.246  -0.677   0.155  0.00  0.00     0.261 A 
HETATM    8  O   UNK N   1      -1.547  -0.913   1.317  0.00  0.00    -0.270 OA
HETATM    9  H   UNK N   1      -1.481   0.224  -2.943  0.00  0.00     0.165 HD
ENDROOT
BRANCH   1  10
HETATM   10  C   UNK N   1       1.025  -1.668   0.289  0.00  0.00     0.239 C 
BRANCH  10  11
HETATM   11  C   UNK N   1       2.061  -0.937   1.121  0.00  0.00     0.239 C 
HETATM   12  N   UNK N   1       2.322   0.413   1.064  0.00  0.00    -0.339 N 
HETATM   13  C   UNK N   1       1.599   1.268   0.123  0.00  0.00     0.147 C 
HETATM   14  C   UNK N   1       3.464   0.940   1.837  0.00  0.00     0.137 C 
HETATM   15  C   UNK N   1       1.527   2.735   0.552  0.00  0.00     0.148 C 
HETATM   16  N   UNK N   1       2.838   3.179   0.986  0.00  0.00    -0.357 N 
HETATM   17  C   UNK N   1       3.352   4.416   0.919  0.00  0.00     0.091 A 
HETATM   18  C   UNK N   1       3.726   2.391   1.585  0.00  0.00     0.034 A 
HETATM   19  C   UNK N   1       4.617   4.406   1.495  0.00  0.00     0.019 A 
HETATM   20  C   UNK N   1       4.853   3.106   1.927  0.00  0.00     0.028 A 
HETATM   21  O   UNK N   1       2.741  -1.643   1.851  0.00  0.00    -0.271 OA
BRANCH  14  22
HETATM   22  C   UNK N   1       3.327   0.687   3.345  0.00  0.00     0.027 C 
HETATM   23  C   UNK N   1       2.084   1.338   3.928  0.00  0.00     0.007 C 
ENDBRANCH  14  22
ENDBRANCH  10  11
ENDBRANCH   1  10
BRANCH   5  24
HETATM   24  C   UNK N   1      -3.284  -1.190  -1.140  0.00  0.00    -0.021 A 
HETATM   25  C   UNK N   1      -4.176  -1.514  -0.104  0.00  0.00     0.013 A 
HETATM   26  C   UNK N   1      -5.104  -2.547  -0.267  0.00  0.00     0.043 A 
HETATM   27  C   UNK N   1      -5.149  -3.266  -1.465  0.00  0.00     0.116 A 
HETATM   28  F   UNK N   1      -6.028  -4.286  -1.611  0.00  0.00    -0.206 F 
HETATM   29  C   UNK N   1      -4.280  -2.939  -2.508  0.00  0.00     0.043 A 
HETATM   30  C   UNK N   1      -3.351  -1.909  -2.346  0.00  0.00     0.013 A 
ENDBRANCH   5  24
TORSDOF 4
