REMARK  7 active torsions:
REMARK  status: ('A' for Active; 'I' for Inactive)
REMARK    1  A    between atoms: C_2  and  C_4 
REMARK    2  A    between atoms: C_5  and  C_6 
REMARK       I    between atoms: C_6  and  N_8 
REMARK    3  A    between atoms: N_8  and  C_9 
REMARK    4  A    between atoms: C_9  and  C_11 
REMARK    5  A    between atoms: C_11  and  C_12 
REMARK    6  A    between atoms: C_12  and  N_14 
REMARK       I    between atoms: N_14  and  C_15 
REMARK    7  A    between atoms: C_15  and  C_17 
ROOT
HETATM    1  C   UNK N   1       0.059   0.282  -3.266  0.00  0.00     0.082 C 
HETATM    2  C   UNK N   1      -0.002   1.483  -4.191  0.00  0.00     0.032 C 
ENDROOT
BRANCH   1   3
HETATM    3  C   UNK N   1       1.385   0.245  -2.498  0.00  0.00     0.049 C 
BRANCH   3   4
HETATM    4  C   UNK N   1       1.460   1.282  -1.368  0.00  0.00     0.083 C 
HETATM    5  C   UNK N   1       1.802   2.644  -1.938  0.00  0.00     0.032 C 
BRANCH   4   6
HETATM    6  N   UNK N   1       2.414   0.971  -0.315  0.00  0.00    -0.346 N 
HETATM    7  C   UNK N   1       3.066  -0.203  -0.105  0.00  0.00     0.296 C 
HETATM    8  O   UNK N   1       2.853  -1.189  -0.793  0.00  0.00    -0.258 OA
HETATM    9  H   UNK N   1       2.610   1.697   0.320  0.00  0.00     0.163 HD
BRANCH   7  10
HETATM   10  C   UNK N   1       4.039  -0.276   0.946  0.00  0.00    -0.005 C 
HETATM   11  C   UNK N   1       4.876  -0.314   1.811  0.00  0.00    -0.092 C 
BRANCH  11  12
HETATM   12  C   UNK N   1       5.904  -0.351   2.847  0.00  0.00     0.057 C 
HETATM   13  C   UNK N   1       5.252  -0.246   4.209  0.00  0.00     0.023 C 
HETATM   14  C   UNK N   1       6.669  -1.654   2.748  0.00  0.00     0.023 C 
ENDBRANCH  11  12
ENDBRANCH   7  10
ENDBRANCH   4   6
ENDBRANCH   3   4
ENDBRANCH   1   3
BRANCH   1  15
HETATM   15  N   UNK N   1      -1.062   0.304  -2.350  0.00  0.00    -0.351 N 
HETATM   16  C   UNK N   1      -1.322  -0.719  -1.496  0.00  0.00     0.268 C 
HETATM   17  O   UNK N   1      -0.636  -1.732  -1.521  0.00  0.00    -0.266 OA
HETATM   18  H   UNK N   1      -1.656   1.089  -2.345  0.00  0.00     0.163 HD
BRANCH  16  19
HETATM   19  C   UNK N   1      -2.412  -0.608  -0.511  0.00  0.00     0.103 A 
HETATM   20  C   UNK N   1      -3.194   0.561  -0.434  0.00  0.00     0.065 A 
HETATM   21  C   UNK N   1      -4.185   0.593   0.540  0.00  0.00     0.042 A 
HETATM   22  C   UNK N   1      -5.075   1.603   0.824  0.00  0.00     0.031 A 
HETATM   23  N   UNK N   1      -4.377  -0.443   1.360  0.00  0.00    -0.318 N 
HETATM   24  C   UNK N   1      -5.848   1.129   1.886  0.00  0.00     0.020 A 
HETATM   25  C   UNK N   1      -5.384  -0.148   2.192  0.00  0.00     0.098 A 
HETATM   26  C   UNK N   1      -3.632  -1.569   1.293  0.00  0.00     0.188 A 
HETATM   27  N   UNK N   1      -2.648  -1.645   0.354  0.00  0.00    -0.347 N 
ATOM     28  HN  UNK N   1      -2.076  -2.487   0.294  1.00  0.00     0.167 HD
ENDBRANCH  16  19
ENDBRANCH   1  15
TORSDOF 7
