REMARK  5 active torsions:
REMARK  status: ('A' for Active; 'I' for Inactive)
REMARK    1  A    between atoms: O_2  and  C_3 
REMARK    2  A    between atoms: C_5  and  C_3 
REMARK    3  A    between atoms: C_7  and  C_8 
REMARK       I    between atoms: N_15  and  C_16 
REMARK    4  A    between atoms: C_16  and  C_18 
REMARK    5  A    between atoms: C_18  and  N_19 
ROOT
HETATM    1  C   UNK N   1       2.527  -2.088   0.931  0.00  0.00     0.104 C 
HETATM    2  C   UNK N   1       3.085  -0.788   0.331  0.00  0.00     0.027 C 
HETATM    3  C   UNK N   1       2.315   0.459   0.791  0.00  0.00     0.037 C 
HETATM    4  C   UNK N   1       0.817   0.336   0.462  0.00  0.00     0.135 C 
HETATM    5  N   UNK N   1       0.419  -1.038   0.229  0.00  0.00    -0.349 N 
HETATM    6  C   UNK N   1      -0.462  -1.344  -0.766  0.00  0.00     0.239 C 
HETATM    7  O   UNK N   1      -0.759  -2.509  -0.990  0.00  0.00    -0.271 OA
HETATM    8  C   UNK N   1       0.997  -2.078   1.055  0.00  0.00     0.140 C 
ENDROOT
BRANCH   6   9
HETATM    9  C   UNK N   1      -1.108  -0.264  -1.586  0.00  0.00     0.257 C 
BRANCH   9  10
HETATM   10  N   UNK N   1      -2.248   0.268  -0.851  0.00  0.00    -0.232 N 
HETATM   11  N   UNK N   1      -2.195   1.282   0.007  0.00  0.00    -0.278 N 
HETATM   12  C   UNK N   1      -3.446   1.420   0.505  0.00  0.00     0.130 A 
ATOM     13  HN  UNK N   1      -1.377   1.843   0.243  1.00  0.00     0.189 HD
HETATM   14  C   UNK N   1      -3.876   2.343   1.451  0.00  0.00     0.050 A 
HETATM   15  N   UNK N   1      -4.289   0.515  -0.020  0.00  0.00    -0.258 N 
HETATM   16  C   UNK N   1      -5.229   2.290   1.832  0.00  0.00     0.005 A 
HETATM   17  C   UNK N   1      -6.096   1.330   1.266  0.00  0.00     0.018 A 
HETATM   18  C   UNK N   1      -5.600   0.425   0.315  0.00  0.00     0.103 A 
HETATM   19  C   UNK N   1      -3.523  -0.200  -0.870  0.00  0.00     0.349 A 
HETATM   20  O   UNK N   1      -3.914  -1.136  -1.544  0.00  0.00    -0.244 OA
ENDBRANCH   9  10
ENDBRANCH   6   9
BRANCH   3  21
HETATM   21  C   UNK N   1       2.877   1.723   0.181  0.00  0.00    -0.052 A 
HETATM   22  C   UNK N   1       4.040   1.698  -0.610  0.00  0.00     0.007 A 
HETATM   23  C   UNK N   1       4.535   2.871  -1.182  0.00  0.00     0.001 A 
HETATM   24  C   UNK N   1       3.867   4.080  -0.981  0.00  0.00     0.000 A 
HETATM   25  C   UNK N   1       2.712   4.119  -0.195  0.00  0.00     0.001 A 
HETATM   26  C   UNK N   1       2.224   2.947   0.391  0.00  0.00     0.007 A 
ENDBRANCH   3  21
BRANCH   1  27
HETATM   27  C   UNK N   1       2.964  -3.294   0.145  0.00  0.00     0.264 C 
HETATM   28  O   UNK N   1       3.534  -3.160  -0.932  0.00  0.00    -0.265 OA
BRANCH  27  29
HETATM   29  O   UNK N   1       2.721  -4.530   0.644  0.00  0.00    -0.326 OA
HETATM   30  C   UNK N   1       3.113  -5.676  -0.007  0.00  0.00     0.213 C 
ENDBRANCH  27  29
ENDBRANCH   1  27
TORSDOF 5
