REMARK  4 active torsions:
REMARK  status: ('A' for Active; 'I' for Inactive)
REMARK       I    between atoms: C_2  and  N_4 
REMARK    1  A    between atoms: N_4  and  C_5 
REMARK    2  A    between atoms: C_5  and  C_6 
REMARK    3  A    between atoms: C_9  and  C_10 
REMARK       I    between atoms: C_10  and  N_12 
REMARK    4  A    between atoms: C_15  and  O_16 
ROOT
HETATM    1  C   UNK N   1       0.427   1.697  -0.214  0.00  0.00     0.260 C 
HETATM    2  O   UNK N   1       0.664   2.894  -0.283  0.00  0.00    -0.267 OA
HETATM    3  N   UNK N   1       1.379   0.799  -0.628  0.00  0.00    -0.347 N 
HETATM    4  C   UNK N   1       2.656   1.298  -1.133  0.00  0.00     0.129 C 
HETATM    5  C   UNK N   1       3.698   0.207  -1.466  0.00  0.00     0.058 C 
HETATM    6  C   UNK N   1       3.570  -1.148  -0.734  0.00  0.00     0.064 C 
HETATM    7  C   UNK N   1       4.885  -1.492  -0.030  0.00  0.00     0.038 C 
HETATM    8  C   UNK N   1       5.128  -0.586   1.174  0.00  0.00     0.003 C 
HETATM    9  C   UNK N   1       4.002  -0.774   2.182  0.00  0.00     0.001 C 
HETATM   10  C   UNK N   1       2.673  -0.386   1.550  0.00  0.00     0.009 C 
HETATM   11  C   UNK N   1       2.403  -1.194   0.267  0.00  0.00     0.038 C 
HETATM   12  C   UNK N   1       1.194  -0.627  -0.456  0.00  0.00     0.133 C 
ENDROOT
BRANCH   1  13
HETATM   13  C   UNK N   1      -0.902   1.282   0.333  0.00  0.00     0.073 A 
HETATM   14  C   UNK N   1      -1.854   2.171   0.854  0.00  0.00     0.026 A 
HETATM   15  C   UNK N   1      -3.050   1.527   1.291  0.00  0.00     0.018 A 
HETATM   16  C   UNK N   1      -3.024   0.145   1.098  0.00  0.00     0.001 A 
HETATM   17  S   UNK N   1      -1.572  -0.238   0.421  0.00  0.00    -0.088 SA
BRANCH  16  18
HETATM   18  C   UNK N   1      -4.130  -0.807   1.405  0.00  0.00     0.168 C 
BRANCH  18  19
HETATM   19  N   UNK N   1      -4.674  -1.364   0.186  0.00  0.00    -0.357 N 
HETATM   20  C   UNK N   1      -5.363  -0.613  -0.710  0.00  0.00     0.213 C 
HETATM   21  C   UNK N   1      -5.907  -1.247  -1.941  0.00  0.00     0.117 C 
HETATM   22  O   UNK N   1      -5.546   0.580  -0.516  0.00  0.00    -0.274 OA
HETATM   23  H   UNK N   1      -4.539  -2.321  -0.000  0.00  0.00     0.162 HD
ENDBRANCH  18  19
ENDBRANCH  16  18
ENDBRANCH   1  13
BRANCH   6  24
HETATM   24  O   UNK N   1       3.343  -2.126  -1.705  0.00  0.00    -0.389 OA
HETATM   25  H   UNK N   1       4.068  -2.117  -2.349  0.00  0.00     0.210 HD
ENDBRANCH   6  24
TORSDOF 4
