REMARK  5 active torsions:
REMARK  status: ('A' for Active; 'I' for Inactive)
REMARK    1  A    between atoms: C_2  and  O_3 
REMARK    2  A    between atoms: O_3  and  C_4 
REMARK    3  A    between atoms: C_7  and  N_8 
REMARK       I    between atoms: N_8  and  C_9 
REMARK       I    between atoms: C_9  and  N_11 
REMARK    4  A    between atoms: C_15  and  C_16 
REMARK    5  A    between atoms: C_20  and  C_21 
ROOT
HETATM    1  N   UNK N   1       0.953  -0.185   0.668  0.00  0.00    -0.308 N 
HETATM    2  C   UNK N   1       0.313  -1.359   0.940  0.00  0.00     0.323 C 
HETATM    3  O   UNK N   1       0.908  -2.425   0.832  0.00  0.00    -0.247 OA
HETATM    4  N   UNK N   1      -0.980  -1.363   1.373  0.00  0.00    -0.322 N 
HETATM    5  C   UNK N   1      -1.580  -2.560   1.893  0.00  0.00     0.128 C 
HETATM    6  C   UNK N   1      -2.537  -2.055   2.968  0.00  0.00     0.022 C 
HETATM    7  C   UNK N   1      -2.377  -0.528   2.991  0.00  0.00     0.035 C 
HETATM    8  C   UNK N   1      -1.736  -0.173   1.659  0.00  0.00     0.158 C 
HETATM    9  H   UNK N   1       0.437   0.647   0.767  0.00  0.00     0.170 HD
ENDROOT
BRANCH   8  10
HETATM   10  C   UNK N   1      -2.836  -0.011   0.639  0.00  0.00     0.127 A 
HETATM   11  N   UNK N   1      -3.676  -0.999   0.269  0.00  0.00    -0.245 N 
HETATM   12  O   UNK N   1      -4.467  -0.478  -0.617  0.00  0.00    -0.222 OA
ATOM     13  HN  UNK N   1      -3.687  -1.958   0.616  1.00  0.00     0.196 HD
HETATM   14  C   UNK N   1      -4.158   0.783  -0.796  0.00  0.00     0.151 A 
HETATM   15  N   UNK N   1      -3.115   1.137  -0.014  0.00  0.00    -0.325 N 
ATOM     16  HN  UNK N   1      -2.655   2.043   0.065  1.00  0.00     0.169 HD
BRANCH  14  17
HETATM   17  C   UNK N   1      -4.858   1.704  -1.747  0.00  0.00     0.055 C 
HETATM   18  C   UNK N   1      -5.657   2.732  -0.969  0.00  0.00     0.018 C 
HETATM   19  C   UNK N   1      -5.794   0.942  -2.667  0.00  0.00     0.018 C 
ENDBRANCH  14  17
ENDBRANCH   8  10
BRANCH   1  20
HETATM   20  C   UNK N   1       2.318  -0.069   0.252  0.00  0.00     0.051 A 
HETATM   21  C   UNK N   1       3.100  -1.189  -0.070  0.00  0.00     0.035 A 
HETATM   22  C   UNK N   1       4.430  -1.035  -0.454  0.00  0.00     0.058 A 
HETATM   23  C   UNK N   1       4.982   0.243  -0.513  0.00  0.00     0.141 A 
HETATM   24  N   UNK N   1       4.213   1.327  -0.197  0.00  0.00    -0.345 N 
HETATM   25  C   UNK N   1       2.909   1.197   0.176  0.00  0.00     0.119 A 
ATOM     26  HN  UNK N   1       4.626   2.259  -0.242  1.00  0.00     0.167 HD
BRANCH  23  27
HETATM   27  O   UNK N   1       6.278   0.387  -0.880  0.00  0.00    -0.336 OA
BRANCH  27  28
HETATM   28  C   UNK N   1       6.912   1.608  -0.960  0.00  0.00     0.173 C 
HETATM   29  C   UNK N   1       6.455   2.367  -2.193  0.00  0.00     0.034 C 
ENDBRANCH  27  28
ENDBRANCH  23  27
ENDBRANCH   1  20
TORSDOF 5
