REMARK  5 active torsions:
REMARK  status: ('A' for Active; 'I' for Inactive)
REMARK    1  A    between atoms: C_4  and  C_5 
REMARK       I    between atoms: C_5  and  N_7 
REMARK    2  A    between atoms: N_7  and  C_8 
REMARK    3  A    between atoms: C_9  and  C_8 
REMARK    4  A    between atoms: C_22  and  S_23 
REMARK    5  A    between atoms: S_23  and  N_24 
ROOT
HETATM    1  C   UNK N   1       0.791  -0.414  -0.136  0.00  0.00     0.275 C 
HETATM    2  O   UNK N   1      -0.028  -1.060   0.504  0.00  0.00    -0.265 OA
HETATM    3  N   UNK N   1       0.400   0.570  -0.985  0.00  0.00    -0.355 N 
HETATM    4  H   UNK N   1       1.094   1.014  -1.524  0.00  0.00     0.162 HD
ENDROOT
BRANCH   3   5
HETATM    5  C   UNK N   1      -0.963   1.006  -1.151  0.00  0.00     0.128 C 
BRANCH   5   6
HETATM    6  C   UNK N   1      -1.834   0.040  -1.948  0.00  0.00     0.017 A 
HETATM    7  C   UNK N   1      -2.369  -1.042  -1.062  0.00  0.00     0.022 A 
HETATM    8  C   UNK N   1      -3.290   0.116  -1.447  0.00  0.00    -0.007 A 
HETATM    9  C   UNK N   1      -4.448  -0.545  -2.205  0.00  0.00     0.015 C 
HETATM   10  C   UNK N   1      -3.713   0.793  -0.164  0.00  0.00    -0.043 A 
HETATM   11  C   UNK N   1      -5.533  -1.136  -1.256  0.00  0.00     0.006 C 
HETATM   12  C   UNK N   1      -5.101  -1.235   0.225  0.00  0.00     0.039 C 
HETATM   13  C   UNK N   1      -4.595   0.102   0.676  0.00  0.00    -0.051 A 
HETATM   14  C   UNK N   1      -5.043   0.690   1.861  0.00  0.00     0.007 A 
HETATM   15  C   UNK N   1      -4.605   1.974   2.209  0.00  0.00     0.001 A 
HETATM   16  C   UNK N   1      -3.752   2.681   1.355  0.00  0.00     0.001 A 
HETATM   17  C   UNK N   1      -3.318   2.097   0.162  0.00  0.00     0.008 A 
ENDBRANCH   5   6
ENDBRANCH   3   5
BRANCH   1  18
HETATM   18  C   UNK N   1       2.220  -0.655   0.057  0.00  0.00     0.144 A 
HETATM   19  O   UNK N   1       2.739  -1.593   0.821  0.00  0.00    -0.308 OA
HETATM   20  C   UNK N   1       4.045  -1.476   0.792  0.00  0.00     0.073 A 
HETATM   21  C   UNK N   1       4.984  -2.359   1.535  0.00  0.00     0.078 C 
HETATM   22  C   UNK N   1       4.386  -0.411  -0.016  0.00  0.00     0.106 A 
HETATM   23  C   UNK N   1       3.219   0.123  -0.498  0.00  0.00     0.070 A 
BRANCH  22  24
HETATM   24  S   UNK N   1       6.012   0.227  -0.379  0.00  0.00     0.241 S 
HETATM   25  O   UNK N   1       6.922  -0.771  -1.108  0.00  0.00    -0.206 OA
HETATM   26  O   UNK N   1       6.821   0.587   0.876  0.00  0.00    -0.206 OA
BRANCH  24  27
HETATM   27  N   UNK N   1       6.053   1.688  -1.369  0.00  0.00    -0.225 NA
HETATM   28  H   UNK N   1       5.532   1.529  -2.231  0.00  0.00     0.136 HD
HETATM   29  H   UNK N   1       7.017   1.944  -1.581  0.00  0.00     0.136 HD
ENDBRANCH  24  27
ENDBRANCH  22  24
ENDBRANCH   1  18
TORSDOF 5
