REMARK  4 active torsions:
REMARK  status: ('A' for Active; 'I' for Inactive)
REMARK    1  A    between atoms: C_3  and  C_2 
REMARK       I    between atoms: N_11  and  C_12 
REMARK    2  A    between atoms: C_12  and  C_14 
REMARK    3  A    between atoms: C_14  and  C_15 
REMARK    4  A    between atoms: C_18  and  N_19 
ROOT
HETATM    1  C   UNK N   1      -3.366  -0.296  -1.055  0.00  0.00     0.137 C 
HETATM    2  C   UNK N   1      -4.312   0.523  -0.239  0.00  0.00     0.034 A 
HETATM    3  C   UNK N   1      -4.688   1.845  -0.356  0.00  0.00     0.028 A 
HETATM    4  C   UNK N   1      -5.524   2.092   0.731  0.00  0.00     0.019 A 
HETATM    5  C   UNK N   1      -5.597   0.911   1.462  0.00  0.00     0.091 A 
HETATM    6  N   UNK N   1      -4.857  -0.020   0.844  0.00  0.00    -0.357 N 
HETATM    7  C   UNK N   1      -4.572  -1.388   1.245  0.00  0.00     0.148 C 
HETATM    8  C   UNK N   1      -3.062  -1.662   1.056  0.00  0.00     0.147 C 
HETATM    9  N   UNK N   1      -2.457  -0.966  -0.096  0.00  0.00    -0.340 N 
HETATM   10  C   UNK N   1      -1.081  -0.944  -0.155  0.00  0.00     0.224 C 
HETATM   11  O   UNK N   1      -0.439  -1.499   0.730  0.00  0.00    -0.273 OA
ENDROOT
BRANCH  10  12
HETATM   12  C   UNK N   1      -0.314  -0.267  -1.270  0.00  0.00     0.141 C 
BRANCH  12  13
HETATM   13  C   UNK N   1       1.144  -0.137  -0.974  0.00  0.00    -0.049 A 
HETATM   14  C   UNK N   1       1.583   0.785  -0.018  0.00  0.00     0.010 A 
HETATM   15  C   UNK N   1       2.940   0.874   0.295  0.00  0.00     0.032 A 
HETATM   16  C   UNK N   1       3.869   0.040  -0.345  0.00  0.00     0.056 A 
HETATM   17  C   UNK N   1       3.423  -0.874  -1.312  0.00  0.00     0.032 A 
HETATM   18  C   UNK N   1       2.064  -0.961  -1.626  0.00  0.00     0.010 A 
BRANCH  16  19
HETATM   19  N   UNK N   1       5.260   0.105  -0.002  0.00  0.00    -0.268 N 
HETATM   20  C   UNK N   1       5.809   0.894   0.938  0.00  0.00     0.118 A 
HETATM   21  C   UNK N   1       7.168   0.642   0.966  0.00  0.00     0.038 A 
HETATM   22  C   UNK N   1       7.378  -0.329  -0.002  0.00  0.00     0.109 A 
HETATM   23  N   UNK N   1       6.197  -0.635  -0.570  0.00  0.00    -0.305 N 
ATOM     24  HN  UNK N   1       6.050  -1.319  -1.311  1.00  0.00     0.186 HD
ENDBRANCH  16  19
ENDBRANCH  12  13
ENDBRANCH  10  12
BRANCH   1  25
HETATM   25  C   UNK N   1      -2.757   0.481  -2.227  0.00  0.00     0.027 C 
HETATM   26  C   UNK N   1      -3.811   0.848  -3.257  0.00  0.00     0.007 C 
ENDBRANCH   1  25
TORSDOF 4
