REMARK  5 active torsions:
REMARK  status: ('A' for Active; 'I' for Inactive)
REMARK    1  A    between atoms: O_2  and  C_3 
REMARK    2  A    between atoms: C_5  and  C_3 
REMARK    3  A    between atoms: C_7  and  C_8 
REMARK       I    between atoms: N_15  and  C_16 
REMARK    4  A    between atoms: C_16  and  C_18 
REMARK    5  A    between atoms: C_18  and  N_19 
ROOT
HETATM    1  C   UNK N   1      -2.298  -2.213   0.439  0.00  0.00     0.104 C 
HETATM    2  C   UNK N   1      -2.739  -1.103  -0.527  0.00  0.00     0.027 C 
HETATM    3  C   UNK N   1      -2.861   0.225   0.227  0.00  0.00     0.037 C 
HETATM    4  C   UNK N   1      -1.469   0.664   0.690  0.00  0.00     0.135 C 
HETATM    5  N   UNK N   1      -0.624  -0.479   0.993  0.00  0.00    -0.349 N 
HETATM    6  C   UNK N   1       0.721  -0.401   0.791  0.00  0.00     0.239 C 
HETATM    7  O   UNK N   1       1.433  -1.372   1.011  0.00  0.00    -0.271 OA
HETATM    8  C   UNK N   1      -1.240  -1.715   1.448  0.00  0.00     0.140 C 
ENDROOT
BRANCH   6   9
HETATM    9  C   UNK N   1       1.338   0.886   0.292  0.00  0.00     0.257 C 
BRANCH   9  10
HETATM   10  N   UNK N   1       2.775   0.765   0.111  0.00  0.00    -0.232 N 
HETATM   11  N   UNK N   1       3.677   1.076   1.037  0.00  0.00    -0.278 N 
HETATM   12  C   UNK N   1       4.884   0.816   0.488  0.00  0.00     0.130 A 
ATOM     13  HN  UNK N   1       3.494   1.439   1.972  1.00  0.00     0.189 HD
HETATM   14  C   UNK N   1       6.127   0.979   1.086  0.00  0.00     0.050 A 
HETATM   15  N   UNK N   1       4.768   0.349  -0.768  0.00  0.00    -0.258 N 
HETATM   16  C   UNK N   1       7.257   0.635   0.324  0.00  0.00     0.005 A 
HETATM   17  C   UNK N   1       7.111   0.148  -0.994  0.00  0.00     0.018 A 
HETATM   18  C   UNK N   1       5.826   0.006  -1.541  0.00  0.00     0.103 A 
HETATM   19  C   UNK N   1       3.437   0.325  -0.989  0.00  0.00     0.349 A 
HETATM   20  O   UNK N   1       2.907  -0.041  -2.025  0.00  0.00    -0.244 OA
ENDBRANCH   9  10
ENDBRANCH   6   9
BRANCH   3  21
HETATM   21  C   UNK N   1      -3.551   1.301  -0.568  0.00  0.00    -0.052 A 
HETATM   22  C   UNK N   1      -3.661   2.592  -0.034  0.00  0.00     0.007 A 
HETATM   23  C   UNK N   1      -4.311   3.599  -0.752  0.00  0.00     0.001 A 
HETATM   24  C   UNK N   1      -4.873   3.318  -2.000  0.00  0.00     0.000 A 
HETATM   25  C   UNK N   1      -4.779   2.031  -2.535  0.00  0.00     0.001 A 
HETATM   26  C   UNK N   1      -4.118   1.027  -1.824  0.00  0.00     0.007 A 
ENDBRANCH   3  21
BRANCH   1  27
HETATM   27  C   UNK N   1      -3.482  -2.797   1.168  0.00  0.00     0.264 C 
HETATM   28  O   UNK N   1      -4.603  -2.331   0.998  0.00  0.00    -0.265 OA
BRANCH  27  29
HETATM   29  O   UNK N   1      -3.301  -3.852   1.998  0.00  0.00    -0.326 OA
HETATM   30  C   UNK N   1      -4.349  -4.439   2.670  0.00  0.00     0.213 C 
ENDBRANCH  27  29
ENDBRANCH   1  27
TORSDOF 5
