REMARK  4 active torsions:
REMARK  status: ('A' for Active; 'I' for Inactive)
REMARK       I    between atoms: C_2  and  N_4 
REMARK    1  A    between atoms: N_4  and  C_5 
REMARK    2  A    between atoms: C_5  and  C_6 
REMARK    3  A    between atoms: C_9  and  C_10 
REMARK       I    between atoms: C_10  and  N_12 
REMARK    4  A    between atoms: C_15  and  O_16 
ROOT
HETATM    1  C   UNK N   1      -0.874  -0.940  -1.579  0.00  0.00     0.260 C 
HETATM    2  O   UNK N   1      -1.813  -0.732  -2.333  0.00  0.00    -0.267 OA
HETATM    3  N   UNK N   1      -0.733  -2.179  -1.003  0.00  0.00    -0.347 N 
HETATM    4  C   UNK N   1      -1.696  -3.235  -1.300  0.00  0.00     0.129 C 
HETATM    5  C   UNK N   1      -1.938  -4.165  -0.091  0.00  0.00     0.058 C 
HETATM    6  C   UNK N   1      -1.627  -3.453   1.223  0.00  0.00     0.064 C 
HETATM    7  C   UNK N   1      -1.854  -4.380   2.422  0.00  0.00     0.038 C 
HETATM    8  C   UNK N   1      -1.090  -3.949   3.694  0.00  0.00     0.003 C 
HETATM    9  C   UNK N   1      -0.644  -2.481   3.669  0.00  0.00     0.001 C 
HETATM   10  C   UNK N   1       0.190  -2.135   2.423  0.00  0.00     0.009 C 
HETATM   11  C   UNK N   1      -0.149  -3.032   1.226  0.00  0.00     0.038 C 
HETATM   12  C   UNK N   1       0.362  -2.477  -0.105  0.00  0.00     0.133 C 
ENDROOT
BRANCH   1  13
HETATM   13  C   UNK N   1       0.093   0.173  -1.338  0.00  0.00     0.073 A 
HETATM   14  C   UNK N   1       1.220   0.178  -0.500  0.00  0.00     0.026 A 
HETATM   15  C   UNK N   1       1.941   1.406  -0.523  0.00  0.00     0.018 A 
HETATM   16  C   UNK N   1       1.373   2.350  -1.378  0.00  0.00     0.001 A 
HETATM   17  S   UNK N   1       0.035   1.664  -2.068  0.00  0.00    -0.088 SA
BRANCH  16  18
HETATM   18  C   UNK N   1       1.907   3.710  -1.661  0.00  0.00     0.168 C 
BRANCH  18  19
HETATM   19  N   UNK N   1       1.520   4.623  -0.615  0.00  0.00    -0.357 N 
HETATM   20  C   UNK N   1       1.975   5.897  -0.578  0.00  0.00     0.213 C 
HETATM   21  C   UNK N   1       1.498   6.819   0.491  0.00  0.00     0.117 C 
HETATM   22  O   UNK N   1       2.769   6.302  -1.414  0.00  0.00    -0.274 OA
HETATM   23  H   UNK N   1       0.909   4.311   0.092  0.00  0.00     0.162 HD
ENDBRANCH  18  19
ENDBRANCH  16  18
ENDBRANCH   1  13
BRANCH   6  24
HETATM   24  O   UNK N   1      -2.464  -2.337   1.340  0.00  0.00    -0.389 OA
HETATM   25  H   UNK N   1      -3.390  -2.625   1.336  0.00  0.00     0.210 HD
ENDBRANCH   6  24
TORSDOF 4
