REMARK  7 active torsions:
REMARK  status: ('A' for Active; 'I' for Inactive)
REMARK    1  A    between atoms: C_2  and  C_3 
REMARK       I    between atoms: C_2  and  N_12 
REMARK    2  A    between atoms: C_3  and  C_4 
REMARK    3  A    between atoms: C_4  and  C_5 
REMARK    4  A    between atoms: C_10  and  O_11 
REMARK    5  A    between atoms: C_15  and  S_16 
REMARK    6  A    between atoms: S_16  and  N_19 
REMARK    7  A    between atoms: N_19  and  C_20 
ROOT
HETATM    1  O   UNK N   1       1.357  -0.280   1.864  0.00  0.00    -0.273 OA
HETATM    2  C   UNK N   1       0.659   0.092   0.932  0.00  0.00     0.220 C 
HETATM    3  N   UNK N   1      -0.399  -0.667   0.533  0.00  0.00    -0.351 N 
HETATM    4  C   UNK N   1      -0.682  -1.941   1.128  0.00  0.00     0.127 C 
HETATM    5  C   UNK N   1      -1.574  -2.630   0.113  0.00  0.00     0.043 C 
HETATM    6  C   UNK N   1      -2.187  -1.514  -0.725  0.00  0.00     0.143 C 
HETATM    7  C   UNK N   1      -1.244  -0.324  -0.575  0.00  0.00     0.147 C 
ENDROOT
BRANCH   2   8
HETATM    8  C   UNK N   1       1.006   1.368   0.200  0.00  0.00     0.108 C 
BRANCH   8   9
HETATM    9  C   UNK N   1       2.391   1.913   0.560  0.00  0.00     0.051 C 
BRANCH   9  10
HETATM   10  C   UNK N   1       3.489   1.083  -0.043  0.00  0.00    -0.025 A 
HETATM   11  C   UNK N   1       3.612   0.993  -1.436  0.00  0.00     0.010 A 
HETATM   12  C   UNK N   1       4.634   0.226  -2.006  0.00  0.00     0.001 A 
HETATM   13  C   UNK N   1       5.538  -0.454  -1.186  0.00  0.00     0.003 A 
HETATM   14  C   UNK N   1       5.423  -0.366   0.204  0.00  0.00     0.037 A 
HETATM   15  C   UNK N   1       4.404   0.400   0.779  0.00  0.00     0.071 A 
BRANCH  15  16
HETATM   16  O   UNK N   1       4.309   0.475   2.118  0.00  0.00    -0.360 OA
HETATM   17  H   UNK N   1       4.922   0.017   2.658  0.00  0.00     0.217 HD
ENDBRANCH  15  16
ENDBRANCH   9  10
ENDBRANCH   8   9
ENDBRANCH   2   8
BRANCH   6  18
HETATM   18  S   UNK N   1      -3.842  -1.143  -0.068  0.00  0.00     0.215 S 
HETATM   19  O   UNK N   1      -4.768  -2.359  -0.221  0.00  0.00    -0.211 OA
HETATM   20  O   UNK N   1      -3.899  -0.901   1.451  0.00  0.00    -0.211 OA
BRANCH  18  21
HETATM   21  N   UNK N   1      -4.756   0.163  -0.851  0.00  0.00    -0.215 NA
HETATM   22  H   UNK N   1      -5.646  -0.191  -1.201  0.00  0.00     0.140 HD
BRANCH  21  23
HETATM   23  C   UNK N   1      -4.985   1.252   0.089  0.00  0.00     0.071 A 
HETATM   24  C   UNK N   1      -3.707   2.044   0.302  0.00  0.00     0.022 A 
HETATM   25  C   UNK N   1      -4.776   2.568  -0.630  0.00  0.00     0.022 A 
ENDBRANCH  21  23
ENDBRANCH  18  21
ENDBRANCH   6  18
TORSDOF 7
