REMARK  3 active torsions:
REMARK  status: ('A' for Active; 'I' for Inactive)
REMARK    1  A    between atoms: C_6  and  C_7 
REMARK       I    between atoms: C_7  and  N_9 
REMARK    2  A    between atoms: C_13  and  C_15 
REMARK    3  A    between atoms: C_15  and  O_16 
ROOT
HETATM    1  C   UNK N   1       0.333   0.275  -1.002  0.00  0.00     0.254 C 
HETATM    2  O   UNK N   1       0.183   0.928  -2.023  0.00  0.00    -0.267 OA
HETATM    3  N   UNK N   1      -0.676  -0.535  -0.561  0.00  0.00    -0.347 N 
HETATM    4  C   UNK N   1      -0.649  -1.145   0.750  0.00  0.00     0.126 C 
HETATM    5  C   UNK N   1      -1.774  -0.543   1.596  0.00  0.00     0.021 C 
HETATM    6  C   UNK N   1      -3.117  -0.644   0.859  0.00  0.00     0.014 C 
HETATM    7  C   UNK N   1      -3.058  -0.021  -0.547  0.00  0.00    -0.006 C 
HETATM    8  C   UNK N   1      -2.850   1.488  -0.459  0.00  0.00     0.019 C 
HETATM    9  C   UNK N   1      -1.902  -0.649  -1.328  0.00  0.00     0.137 C 
ENDROOT
BRANCH   1  10
HETATM   10  C   UNK N   1       1.582   0.468  -0.220  0.00  0.00     0.038 A 
HETATM   11  C   UNK N   1       1.939   1.777   0.130  0.00  0.00     0.017 A 
HETATM   12  C   UNK N   1       3.096   2.026   0.866  0.00  0.00     0.002 A 
HETATM   13  C   UNK N   1       3.935   0.973   1.223  0.00  0.00     0.007 A 
HETATM   14  C   UNK N   1       3.622  -0.337   0.854  0.00  0.00    -0.055 A 
HETATM   15  C   UNK N   1       4.576  -1.427   1.211  0.00  0.00     0.049 C 
HETATM   16  C   UNK N   1       2.435  -0.605   0.138  0.00  0.00    -0.040 A 
HETATM   17  C   UNK N   1       2.127  -2.006  -0.296  0.00  0.00     0.050 C 
ENDBRANCH   1  10
BRANCH   7  18
HETATM   18  C   UNK N   1      -4.352  -0.304  -1.301  0.00  0.00     0.175 C 
BRANCH  18  19
HETATM   19  O   UNK N   1      -5.450   0.281  -0.663  0.00  0.00    -0.400 OA
HETATM   20  H   UNK N   1      -5.545  -0.095   0.226  0.00  0.00     0.209 HD
ENDBRANCH  18  19
ENDBRANCH   7  18
TORSDOF 3
