REMARK  5 active torsions:
REMARK  status: ('A' for Active; 'I' for Inactive)
REMARK    1  A    between atoms: C_2  and  C_3 
REMARK    2  A    between atoms: C_3  and  O_4 
REMARK       I    between atoms: N_8  and  C_9 
REMARK    3  A    between atoms: C_11  and  C_9 
REMARK    4  A    between atoms: N_15  and  C_16 
REMARK    5  A    between atoms: C_16  and  C_17 
ROOT
HETATM    1  C   UNK N   1       0.116   1.011  -1.309  0.00  0.00     0.105 C 
HETATM    2  C   UNK N   1       0.019   1.214   0.225  0.00  0.00     0.118 C 
HETATM    3  C   UNK N   1       1.140   0.371   0.679  0.00  0.00     0.221 C 
HETATM    4  O   UNK N   1       1.240  -0.070   1.812  0.00  0.00    -0.273 OA
HETATM    5  N   UNK N   1       1.995   0.077  -0.306  0.00  0.00    -0.345 N 
HETATM    6  C   UNK N   1       1.611   0.685  -1.544  0.00  0.00     0.140 C 
ENDROOT
BRANCH   1   7
HETATM    7  C   UNK N   1      -0.705  -0.220  -1.703  0.00  0.00     0.226 C 
HETATM    8  N   UNK N   1      -2.035  -0.317  -1.409  0.00  0.00    -0.351 N 
HETATM    9  C   UNK N   1      -2.721  -1.572  -1.645  0.00  0.00     0.126 C 
HETATM   10  C   UNK N   1      -2.739   0.750  -0.715  0.00  0.00     0.137 C 
HETATM   11  C   UNK N   1      -3.123  -2.194  -0.300  0.00  0.00     0.021 C 
HETATM   12  C   UNK N   1      -3.425  -1.139   0.782  0.00  0.00     0.014 C 
HETATM   13  C   UNK N   1      -3.860   0.208   0.185  0.00  0.00    -0.006 C 
HETATM   14  C   UNK N   1      -4.093   1.205   1.303  0.00  0.00     0.019 C 
HETATM   15  O   UNK N   1      -0.144  -1.160  -2.252  0.00  0.00    -0.273 OA
BRANCH  13  16
HETATM   16  C   UNK N   1      -5.147   0.053  -0.627  0.00  0.00     0.175 C 
BRANCH  16  17
HETATM   17  O   UNK N   1      -6.171  -0.488   0.155  0.00  0.00    -0.400 OA
HETATM   18  H   UNK N   1      -5.911  -1.370   0.465  0.00  0.00     0.209 HD
ENDBRANCH  16  17
ENDBRANCH  13  16
ENDBRANCH   1   7
BRANCH   5  19
HETATM   19  C   UNK N   1       3.077  -0.874  -0.207  0.00  0.00     0.190 C 
BRANCH  19  20
HETATM   20  C   UNK N   1       4.158  -0.396   0.694  0.00  0.00     0.070 A 
HETATM   21  C   UNK N   1       5.292   0.263   0.287  0.00  0.00     0.036 A 
HETATM   22  C   UNK N   1       6.029   0.464   1.438  0.00  0.00     0.027 A 
HETATM   23  C   UNK N   1       5.297  -0.096   2.473  0.00  0.00     0.142 A 
HETATM   24  O   UNK N   1       4.190  -0.602   1.985  0.00  0.00    -0.325 OA
ENDBRANCH  19  20
ENDBRANCH   5  19
TORSDOF 5
