REMARK  5 active torsions:
REMARK  status: ('A' for Active; 'I' for Inactive)
REMARK    1  A    between atoms: C_2  and  C_3 
REMARK    2  A    between atoms: C_3  and  O_4 
REMARK       I    between atoms: N_8  and  C_9 
REMARK    3  A    between atoms: C_11  and  C_9 
REMARK    4  A    between atoms: N_15  and  C_16 
REMARK    5  A    between atoms: C_16  and  C_17 
ROOT
HETATM    1  C   UNK N   1       0.191   0.618  -0.974  0.00  0.00     0.105 C 
HETATM    2  C   UNK N   1      -0.086  -0.877  -1.270  0.00  0.00     0.118 C 
HETATM    3  C   UNK N   1      -1.433  -1.012  -0.680  0.00  0.00     0.221 C 
HETATM    4  O   UNK N   1      -1.887  -2.069  -0.273  0.00  0.00    -0.273 OA
HETATM    5  N   UNK N   1      -2.039   0.165  -0.500  0.00  0.00    -0.345 N 
HETATM    6  C   UNK N   1      -1.221   1.251  -0.945  0.00  0.00     0.140 C 
ENDROOT
BRANCH   1   7
HETATM    7  C   UNK N   1       0.815   0.777   0.416  0.00  0.00     0.226 C 
HETATM    8  N   UNK N   1       2.005   0.196   0.747  0.00  0.00    -0.351 N 
HETATM    9  C   UNK N   1       2.521   0.359   2.103  0.00  0.00     0.126 C 
HETATM   10  C   UNK N   1       2.750  -0.609  -0.205  0.00  0.00     0.137 C 
HETATM   11  C   UNK N   1       3.976  -0.084   2.218  0.00  0.00     0.021 C 
HETATM   12  C   UNK N   1       4.716   0.475   1.012  0.00  0.00     0.014 C 
HETATM   13  C   UNK N   1       4.226  -0.185  -0.289  0.00  0.00    -0.006 C 
HETATM   14  C   UNK N   1       4.393   0.801  -1.430  0.00  0.00     0.019 C 
HETATM   15  O   UNK N   1       0.221   1.439   1.259  0.00  0.00    -0.273 OA
BRANCH  13  16
HETATM   16  C   UNK N   1       5.044  -1.441  -0.567  0.00  0.00     0.175 C 
BRANCH  16  17
HETATM   17  O   UNK N   1       6.410  -1.152  -0.633  0.00  0.00    -0.400 OA
HETATM   18  H   UNK N   1       6.575  -0.532  -1.360  0.00  0.00     0.209 HD
ENDBRANCH  16  17
ENDBRANCH  13  16
ENDBRANCH   1   7
BRANCH   5  19
HETATM   19  C   UNK N   1      -3.143   0.338   0.415  0.00  0.00     0.190 C 
BRANCH  19  20
HETATM   20  C   UNK N   1      -4.460   0.258  -0.265  0.00  0.00     0.070 A 
HETATM   21  C   UNK N   1      -5.109   1.304  -0.875  0.00  0.00     0.036 A 
HETATM   22  C   UNK N   1      -6.329   0.791  -1.276  0.00  0.00     0.027 A 
HETATM   23  C   UNK N   1      -6.346  -0.534  -0.872  0.00  0.00     0.142 A 
HETATM   24  O   UNK N   1      -5.217  -0.808  -0.265  0.00  0.00    -0.325 OA
ENDBRANCH  19  20
ENDBRANCH   5  19
TORSDOF 5
