REMARK  4 active torsions:
REMARK  status: ('A' for Active; 'I' for Inactive)
REMARK    1  A    between atoms: C_7  and  C_8 
REMARK    2  A    between atoms: C_11  and  N_12 
REMARK    3  A    between atoms: N_12  and  C_13 
REMARK    4  A    between atoms: C_13  and  C_14 
ROOT
HETATM    1  C   UNK N   1       1.791  -0.149   0.359  0.00  0.00     0.017 A 
HETATM    2  C   UNK N   1       0.675   0.691   0.262  0.00  0.00     0.018 A 
HETATM    3  C   UNK N   1      -0.597   0.198   0.564  0.00  0.00     0.030 A 
HETATM    4  C   UNK N   1      -0.763  -1.141   0.963  0.00  0.00     0.028 A 
HETATM    5  C   UNK N   1       0.353  -1.973   1.060  0.00  0.00     0.030 A 
HETATM    6  C   UNK N   1       1.623  -1.480   0.761  0.00  0.00     0.018 A 
ENDROOT
BRANCH   4   7
HETATM    7  N   UNK N   1      -2.048  -1.671   1.246  0.00  0.00    -0.384 N 
HETATM    8  H   UNK N   1      -2.121  -2.606   1.546  0.00  0.00     0.160 HD
BRANCH   7   9
HETATM    9  C   UNK N   1      -3.254  -0.887   1.111  0.00  0.00     0.178 C 
BRANCH   9  10
HETATM   10  C   UNK N   1      -3.526  -0.533  -0.324  0.00  0.00     0.047 A 
HETATM   11  C   UNK N   1      -2.894  -1.046  -1.444  0.00  0.00     0.047 A 
HETATM   12  C   UNK N   1      -3.484  -0.377  -2.510  0.00  0.00     0.109 A 
HETATM   13  N   UNK N   1      -4.410   0.480  -2.030  0.00  0.00    -0.310 N 
HETATM   14  N   UNK N   1      -4.428   0.376  -0.714  0.00  0.00    -0.299 N 
ATOM     15  HN  UNK N   1      -4.995   1.101  -2.588  1.00  0.00     0.186 HD
HETATM   16  C   UNK N   1      -5.293   1.162   0.149  0.00  0.00     0.177 C 
ENDBRANCH   9  10
ENDBRANCH   7   9
ENDBRANCH   4   7
BRANCH   1  17
HETATM   17  C   UNK N   1       3.132   0.353   0.044  0.00  0.00     0.174 A 
HETATM   18  N   UNK N   1       4.257  -0.387   0.117  0.00  0.00    -0.277 N 
HETATM   19  N   UNK N   1       5.255   0.407  -0.236  0.00  0.00    -0.281 N 
ATOM     20  HN  UNK N   1       4.324  -1.367   0.390  1.00  0.00     0.189 HD
HETATM   21  C   UNK N   1       4.712   1.606  -0.513  0.00  0.00     0.136 A 
ATOM     22  HN  UNK N   1       6.243   0.158  -0.287  1.00  0.00     0.189 HD
HETATM   23  C   UNK N   1       5.487   2.796  -0.950  0.00  0.00     0.099 C 
HETATM   24  O   UNK N   1       3.413   1.575  -0.342  0.00  0.00    -0.278 OA
ENDBRANCH   1  17
TORSDOF 4
