REMARK  7 active torsions:
REMARK  status: ('A' for Active; 'I' for Inactive)
REMARK    1  A    between atoms: C_7  and  C_8 
REMARK    2  A    between atoms: C_8  and  C_9 
REMARK       I    between atoms: C_9  and  N_11 
REMARK    3  A    between atoms: N_11  and  C_12 
REMARK    4  A    between atoms: C_12  and  C_13 
REMARK    5  A    between atoms: C_13  and  N_14 
REMARK       I    between atoms: N_14  and  C_15 
REMARK    6  A    between atoms: N_14  and  C_24 
REMARK    7  A    between atoms: C_17  and  C_15 
ROOT
HETATM    1  C   UNK N   1       0.648   0.162  -0.255  0.00  0.00     0.142 C 
ENDROOT
BRANCH   1   2
HETATM    2  N   UNK N   1       1.814   0.987  -0.058  0.00  0.00    -0.359 N 
HETATM    3  C   UNK N   1       3.062   0.462  -0.095  0.00  0.00     0.225 C 
HETATM    4  O   UNK N   1       3.217  -0.739  -0.266  0.00  0.00    -0.273 OA
HETATM    5  H   UNK N   1       1.701   1.951   0.106  0.00  0.00     0.162 HD
BRANCH   3   6
HETATM    6  C   UNK N   1       4.247   1.380   0.070  0.00  0.00     0.188 C 
BRANCH   6   7
HETATM    7  C   UNK N   1       5.597   0.718   0.051  0.00  0.00     0.148 A 
HETATM    8  N   UNK N   1       6.761   1.393   0.108  0.00  0.00    -0.281 N 
HETATM    9  N   UNK N   1       7.727   0.488   0.072  0.00  0.00    -0.282 N 
ATOM     10  HN  UNK N   1       6.877   2.405   0.167  1.00  0.00     0.189 HD
HETATM   11  C   UNK N   1       7.124  -0.713  -0.003  0.00  0.00     0.136 A 
ATOM     12  HN  UNK N   1       8.731   0.666   0.098  1.00  0.00     0.189 HD
HETATM   13  C   UNK N   1       7.840  -2.014  -0.059  0.00  0.00     0.099 C 
HETATM   14  O   UNK N   1       5.823  -0.573  -0.016  0.00  0.00    -0.282 OA
ENDBRANCH   6   7
ENDBRANCH   3   6
ENDBRANCH   1   2
BRANCH   1  15
HETATM   15  C   UNK N   1      -0.610   0.938   0.115  0.00  0.00     0.146 C 
BRANCH  15  16
HETATM   16  N   UNK N   1      -1.878   0.242  -0.135  0.00  0.00    -0.345 N 
HETATM   17  C   UNK N   1      -3.021   1.022  -0.148  0.00  0.00     0.225 C 
HETATM   18  O   UNK N   1      -2.916   2.213   0.117  0.00  0.00    -0.273 OA
BRANCH  17  19
HETATM   19  C   UNK N   1      -4.427   0.558  -0.541  0.00  0.00     0.086 C 
HETATM   20  C   UNK N   1      -4.720  -0.919  -0.875  0.00  0.00     0.023 C 
HETATM   21  C   UNK N   1      -5.903  -1.263   0.047  0.00  0.00     0.009 C 
HETATM   22  C   UNK N   1      -7.064  -0.447  -0.429  0.00  0.00    -0.026 C 
HETATM   23  C   UNK N   1      -5.530  -0.425   1.258  0.00  0.00     0.018 C 
HETATM   24  C   UNK N   1      -6.816   0.822  -0.149  0.00  0.00    -0.025 C 
HETATM   25  C   UNK N   1      -5.480   0.901   0.528  0.00  0.00     0.021 C 
ENDBRANCH  17  19
BRANCH  16  26
HETATM   26  C   UNK N   1      -1.888  -1.184  -0.469  0.00  0.00     0.087 A 
HETATM   27  C   UNK N   1      -1.060  -2.023   0.509  0.00  0.00     0.027 A 
HETATM   28  C   UNK N   1      -2.548  -1.985   0.656  0.00  0.00     0.027 A 
ENDBRANCH  16  26
ENDBRANCH  15  16
ENDBRANCH   1  15
TORSDOF 7
