REMARK  5 active torsions:
REMARK  status: ('A' for Active; 'I' for Inactive)
REMARK    1  A    between atoms: C_4  and  C_5 
REMARK       I    between atoms: C_5  and  N_7 
REMARK    2  A    between atoms: N_7  and  C_8 
REMARK    3  A    between atoms: C_9  and  C_8 
REMARK    4  A    between atoms: C_22  and  S_23 
REMARK    5  A    between atoms: S_23  and  N_24 
ROOT
HETATM    1  C   UNK N   1      -1.415   0.722  -1.708  0.00  0.00     0.275 C 
HETATM    2  O   UNK N   1      -1.830   1.302  -2.699  0.00  0.00    -0.265 OA
HETATM    3  N   UNK N   1      -0.091   0.546  -1.514  0.00  0.00    -0.355 N 
HETATM    4  H   UNK N   1       0.197   0.049  -0.714  0.00  0.00     0.162 HD
ENDROOT
BRANCH   3   5
HETATM    5  C   UNK N   1       0.928   1.043  -2.407  0.00  0.00     0.128 C 
BRANCH   5   6
HETATM    6  C   UNK N   1       2.349   0.540  -2.053  0.00  0.00     0.017 A 
HETATM    7  C   UNK N   1       2.286  -0.960  -1.791  0.00  0.00     0.022 A 
HETATM    8  C   UNK N   1       2.633  -0.019  -0.648  0.00  0.00    -0.007 A 
HETATM    9  C   UNK N   1       1.603  -0.013   0.489  0.00  0.00     0.015 C 
HETATM   10  C   UNK N   1       4.047  -0.143  -0.165  0.00  0.00    -0.043 A 
HETATM   11  C   UNK N   1       2.021   0.894   1.671  0.00  0.00     0.006 C 
HETATM   12  C   UNK N   1       3.379   1.600   1.492  0.00  0.00     0.039 C 
HETATM   13  C   UNK N   1       4.400   0.652   0.932  0.00  0.00    -0.051 A 
HETATM   14  C   UNK N   1       5.667   0.534   1.509  0.00  0.00     0.007 A 
HETATM   15  C   UNK N   1       6.588  -0.377   0.982  0.00  0.00     0.001 A 
HETATM   16  C   UNK N   1       6.241  -1.172  -0.118  0.00  0.00     0.001 A 
HETATM   17  C   UNK N   1       4.969  -1.062  -0.689  0.00  0.00     0.008 A 
ENDBRANCH   5   6
ENDBRANCH   3   5
BRANCH   1  18
HETATM   18  C   UNK N   1      -2.351   0.201  -0.702  0.00  0.00     0.144 A 
HETATM   19  O   UNK N   1      -1.980  -0.409   0.404  0.00  0.00    -0.308 OA
HETATM   20  C   UNK N   1      -3.051  -0.734   1.085  0.00  0.00     0.073 A 
HETATM   21  C   UNK N   1      -3.029  -1.436   2.398  0.00  0.00     0.078 C 
HETATM   22  C   UNK N   1      -4.169  -0.320   0.392  0.00  0.00     0.106 A 
HETATM   23  C   UNK N   1      -3.731   0.288  -0.764  0.00  0.00     0.070 A 
BRANCH  22  24
HETATM   24  S   UNK N   1      -5.880  -0.509   0.869  0.00  0.00     0.241 S 
HETATM   25  O   UNK N   1      -6.306  -1.971   1.066  0.00  0.00    -0.206 OA
HETATM   26  O   UNK N   1      -6.214   0.136   2.222  0.00  0.00    -0.206 OA
BRANCH  24  27
HETATM   27  N   UNK N   1      -7.065   0.160  -0.254  0.00  0.00    -0.225 NA
HETATM   28  H   UNK N   1      -6.906  -0.225  -1.185  0.00  0.00     0.136 HD
HETATM   29  H   UNK N   1      -6.996   1.177  -0.275  0.00  0.00     0.136 HD
ENDBRANCH  24  27
ENDBRANCH  22  24
ENDBRANCH   1  18
TORSDOF 5
