REMARK  7 active torsions:
REMARK  status: ('A' for Active; 'I' for Inactive)
REMARK    1  A    between atoms: C_7  and  C_8 
REMARK    2  A    between atoms: C_11  and  N_12 
REMARK    3  A    between atoms: N_12  and  C_13 
REMARK    4  A    between atoms: C_13  and  C_14 
REMARK    5  A    between atoms: C_18  and  O_19 
REMARK    6  A    between atoms: O_19  and  C_20 
REMARK    7  A    between atoms: C_20  and  C_21 
ROOT
HETATM    1  N   UNK N   1       0.604  -3.356  -0.958  0.00  0.00    -0.386 N 
HETATM    2  H   UNK N   1       0.910  -4.017  -1.620  0.00  0.00     0.160 HD
ENDROOT
BRANCH   1   3
HETATM    3  C   UNK N   1       1.422  -2.219  -0.710  0.00  0.00     0.028 A 
HETATM    4  C   UNK N   1       1.022  -1.204   0.175  0.00  0.00     0.030 A 
HETATM    5  C   UNK N   1       1.845  -0.091   0.394  0.00  0.00     0.018 A 
HETATM    6  C   UNK N   1       3.079   0.014  -0.264  0.00  0.00     0.017 A 
HETATM    7  C   UNK N   1       3.480  -1.004  -1.137  0.00  0.00     0.018 A 
HETATM    8  C   UNK N   1       2.656  -2.113  -1.360  0.00  0.00     0.030 A 
BRANCH   6   9
HETATM    9  C   UNK N   1       3.951   1.181  -0.046  0.00  0.00     0.174 A 
HETATM   10  N   UNK N   1       3.661   2.221   0.762  0.00  0.00    -0.277 N 
HETATM   11  N   UNK N   1       4.684   3.058   0.685  0.00  0.00    -0.281 N 
ATOM     12  HN  UNK N   1       2.817   2.340   1.324  1.00  0.00     0.189 HD
HETATM   13  C   UNK N   1       5.568   2.506  -0.167  0.00  0.00     0.136 A 
ATOM     14  HN  UNK N   1       4.784   3.947   1.175  1.00  0.00     0.189 HD
HETATM   15  C   UNK N   1       6.871   3.117  -0.543  0.00  0.00     0.099 C 
HETATM   16  O   UNK N   1       5.120   1.359  -0.615  0.00  0.00    -0.278 OA
ENDBRANCH   6   9
ENDBRANCH   1   3
BRANCH   1  17
HETATM   17  C   UNK N   1      -0.656  -3.588  -0.285  0.00  0.00     0.158 C 
BRANCH  17  18
HETATM   18  C   UNK N   1      -1.721  -2.664  -0.777  0.00  0.00    -0.038 A 
HETATM   19  C   UNK N   1      -2.275  -2.815  -2.054  0.00  0.00     0.009 A 
HETATM   20  C   UNK N   1      -3.281  -1.943  -2.486  0.00  0.00     0.003 A 
HETATM   21  C   UNK N   1      -3.728  -0.916  -1.646  0.00  0.00     0.037 A 
HETATM   22  C   UNK N   1      -3.172  -0.763  -0.363  0.00  0.00     0.069 A 
HETATM   23  C   UNK N   1      -2.178  -1.646   0.062  0.00  0.00     0.045 A 
BRANCH  22  24
HETATM   24  O   UNK N   1      -3.567   0.222   0.478  0.00  0.00    -0.342 OA
BRANCH  24  25
HETATM   25  C   UNK N   1      -4.534   1.154   0.171  0.00  0.00     0.293 C 
BRANCH  25  26
HETATM   26  C   UNK N   1      -4.679   2.144   1.317  0.00  0.00     0.408 C 
HETATM   27  F   UNK N   1      -3.475   2.790   1.531  0.00  0.00    -0.169 F 
HETATM   28  F   UNK N   1      -5.054   1.478   2.470  0.00  0.00    -0.169 F 
HETATM   29  F   UNK N   1      -5.645   3.079   0.999  0.00  0.00    -0.169 F 
ENDBRANCH  25  26
ENDBRANCH  24  25
ENDBRANCH  22  24
ENDBRANCH  17  18
ENDBRANCH   1  17
TORSDOF 7
