REMARK  5 active torsions:
REMARK  status: ('A' for Active; 'I' for Inactive)
REMARK    1  A    between atoms: C_2  and  C_3 
REMARK    2  A    between atoms: C_3  and  O_4 
REMARK       I    between atoms: N_8  and  C_9 
REMARK    3  A    between atoms: C_11  and  C_9 
REMARK    4  A    between atoms: N_15  and  C_16 
REMARK    5  A    between atoms: C_16  and  C_17 
ROOT
HETATM    1  C   UNK N   1       0.048  -0.989  -0.144  0.00  0.00     0.105 C 
HETATM    2  C   UNK N   1       0.619  -2.419  -0.246  0.00  0.00     0.118 C 
HETATM    3  C   UNK N   1       2.004  -2.209   0.217  0.00  0.00     0.221 C 
HETATM    4  O   UNK N   1       2.865  -3.077   0.181  0.00  0.00    -0.273 OA
HETATM    5  N   UNK N   1       2.237  -0.982   0.686  0.00  0.00    -0.345 N 
HETATM    6  C   UNK N   1       1.082  -0.137   0.626  0.00  0.00     0.140 C 
ENDROOT
BRANCH   1   7
HETATM    7  C   UNK N   1      -1.338  -0.902   0.460  0.00  0.00     0.226 C 
HETATM    8  N   UNK N   1      -2.033   0.275   0.442  0.00  0.00    -0.351 N 
HETATM    9  C   UNK N   1      -1.473   1.455  -0.198  0.00  0.00     0.126 C 
HETATM   10  C   UNK N   1      -3.363   0.345   1.025  0.00  0.00     0.137 C 
HETATM   11  C   UNK N   1      -2.402   2.665  -0.087  0.00  0.00     0.021 C 
HETATM   12  C   UNK N   1      -3.846   2.325  -0.483  0.00  0.00     0.014 C 
HETATM   13  C   UNK N   1      -4.345   0.959   0.018  0.00  0.00    -0.006 C 
HETATM   14  C   UNK N   1      -5.686   1.165   0.698  0.00  0.00     0.019 C 
HETATM   15  O   UNK N   1      -1.838  -1.901   0.959  0.00  0.00    -0.273 OA
BRANCH  13  16
HETATM   16  C   UNK N   1      -4.524   0.045  -1.193  0.00  0.00     0.175 C 
BRANCH  16  17
HETATM   17  O   UNK N   1      -5.018  -1.206  -0.814  0.00  0.00    -0.400 OA
HETATM   18  H   UNK N   1      -4.386  -1.637  -0.218  0.00  0.00     0.209 HD
ENDBRANCH  16  17
ENDBRANCH  13  16
ENDBRANCH   1   7
BRANCH   5  19
HETATM   19  C   UNK N   1       3.513  -0.560   1.212  0.00  0.00     0.190 C 
BRANCH  19  20
HETATM   20  C   UNK N   1       4.186   0.358   0.251  0.00  0.00     0.070 A 
HETATM   21  C   UNK N   1       3.906   1.693   0.071  0.00  0.00     0.036 A 
HETATM   22  C   UNK N   1       4.764   2.113  -0.929  0.00  0.00     0.027 A 
HETATM   23  C   UNK N   1       5.509   1.003  -1.296  0.00  0.00     0.142 A 
HETATM   24  O   UNK N   1       5.134  -0.020  -0.567  0.00  0.00    -0.325 OA
ENDBRANCH  19  20
ENDBRANCH   5  19
TORSDOF 5
