REMARK  9 active torsions:
REMARK  status: ('A' for Active; 'I' for Inactive)
REMARK    1  A    between atoms: C_2  and  C_3 
REMARK    2  A    between atoms: C_3  and  C_4 
REMARK    3  A    between atoms: C_4  and  C_5 
REMARK    4  A    between atoms: C_5  and  C_6 
REMARK       I    between atoms: C_6  and  N_8 
REMARK    5  A    between atoms: N_8  and  C_9 
REMARK    6  A    between atoms: N_8  and  C_21 
REMARK    7  A    between atoms: C_9  and  C_10 
REMARK    8  A    between atoms: C_10  and  N_11 
REMARK       I    between atoms: N_11  and  C_12 
REMARK    9  A    between atoms: C_14  and  C_12 
ROOT
HETATM    1  C   UNK N   1       0.568   0.444   2.216  0.00  0.00     0.146 C 
ENDROOT
BRANCH   1   2
HETATM    2  N   UNK N   1       1.889   1.038   2.261  0.00  0.00    -0.346 N 
HETATM    3  C   UNK N   1       2.954   0.382   1.703  0.00  0.00     0.220 C 
HETATM    4  O   UNK N   1       4.079   0.862   1.781  0.00  0.00    -0.273 OA
BRANCH   3   5
HETATM    5  C   UNK N   1       2.754  -0.948   1.010  0.00  0.00     0.103 C 
BRANCH   5   6
HETATM    6  C   UNK N   1       4.036  -1.614   0.509  0.00  0.00     0.009 C 
BRANCH   6   7
HETATM    7  C   UNK N   1       4.687  -0.846  -0.639  0.00  0.00     0.000 C 
BRANCH   7   8
HETATM    8  C   UNK N   1       3.753  -0.680  -1.830  0.00  0.00    -0.005 C 
HETATM    9  C   UNK N   1       3.499  -2.011  -2.511  0.00  0.00     0.005 C 
ENDBRANCH   7   8
ENDBRANCH   6   7
ENDBRANCH   5   6
ENDBRANCH   3   5
BRANCH   2  10
HETATM   10  C   UNK N   1       2.070   2.290   2.980  0.00  0.00     0.087 A 
HETATM   11  C   UNK N   1       1.084   3.351   2.508  0.00  0.00     0.027 A 
HETATM   12  C   UNK N   1       2.508   3.387   2.017  0.00  0.00     0.027 A 
ENDBRANCH   2  10
ENDBRANCH   1   2
BRANCH   1  13
HETATM   13  C   UNK N   1      -0.113   0.829   0.916  0.00  0.00     0.142 C 
BRANCH  13  14
HETATM   14  N   UNK N   1      -1.360   0.122   0.786  0.00  0.00    -0.359 N 
HETATM   15  C   UNK N   1      -2.244   0.422  -0.196  0.00  0.00     0.221 C 
HETATM   16  O   UNK N   1      -2.008   1.329  -0.984  0.00  0.00    -0.273 OA
HETATM   17  H   UNK N   1      -1.575  -0.595   1.425  0.00  0.00     0.162 HD
BRANCH  15  18
HETATM   18  C   UNK N   1      -3.522  -0.366  -0.300  0.00  0.00     0.080 C 
HETATM   19  C   UNK N   1      -4.508   0.250  -1.315  0.00  0.00     0.016 C 
HETATM   20  C   UNK N   1      -5.559  -0.732  -1.845  0.00  0.00     0.027 C 
HETATM   21  C   UNK N   1      -4.941  -1.834  -2.721  0.00  0.00     0.167 C 
HETATM   22  O   UNK N   1      -3.578  -1.581  -2.965  0.00  0.00    -0.391 OA
HETATM   23  C   UNK N   1      -2.824  -2.237  -1.968  0.00  0.00     0.168 C 
HETATM   24  C   UNK N   1      -3.223  -1.858  -0.527  0.00  0.00     0.040 C 
ENDBRANCH  15  18
ENDBRANCH  13  14
ENDBRANCH   1  13
TORSDOF 9
