REMARK  4 active torsions:
REMARK  status: ('A' for Active; 'I' for Inactive)
REMARK    1  A    between atoms: C_3  and  C_2 
REMARK       I    between atoms: N_11  and  C_12 
REMARK    2  A    between atoms: C_12  and  C_14 
REMARK    3  A    between atoms: C_14  and  C_15 
REMARK    4  A    between atoms: C_18  and  N_19 
ROOT
HETATM    1  C   UNK N   1      -3.154  -1.055  -0.166  0.00  0.00     0.137 C 
HETATM    2  C   UNK N   1      -4.117   0.089  -0.347  0.00  0.00     0.034 A 
HETATM    3  C   UNK N   1      -5.352   0.058  -0.959  0.00  0.00     0.028 A 
HETATM    4  C   UNK N   1      -5.850   1.355  -0.870  0.00  0.00     0.019 A 
HETATM    5  C   UNK N   1      -4.885   2.115  -0.220  0.00  0.00     0.091 A 
HETATM    6  N   UNK N   1      -3.846   1.325   0.085  0.00  0.00    -0.357 N 
HETATM    7  C   UNK N   1      -2.607   1.706   0.742  0.00  0.00     0.148 C 
HETATM    8  C   UNK N   1      -2.098   0.507   1.537  0.00  0.00     0.147 C 
HETATM    9  N   UNK N   1      -2.023  -0.684   0.696  0.00  0.00    -0.340 N 
HETATM   10  C   UNK N   1      -0.918  -1.485   0.758  0.00  0.00     0.224 C 
HETATM   11  O   UNK N   1      -0.836  -2.480   0.051  0.00  0.00    -0.273 OA
ENDROOT
BRANCH  10  12
HETATM   12  C   UNK N   1       0.208  -1.182   1.707  0.00  0.00     0.141 C 
BRANCH  12  13
HETATM   13  C   UNK N   1       1.404  -0.689   0.974  0.00  0.00    -0.049 A 
HETATM   14  C   UNK N   1       1.426   0.620   0.483  0.00  0.00     0.010 A 
HETATM   15  C   UNK N   1       2.542   1.086  -0.213  0.00  0.00     0.032 A 
HETATM   16  C   UNK N   1       3.652   0.253  -0.408  0.00  0.00     0.056 A 
HETATM   17  C   UNK N   1       3.632  -1.055   0.101  0.00  0.00     0.032 A 
HETATM   18  C   UNK N   1       2.508  -1.526   0.785  0.00  0.00     0.010 A 
BRANCH  16  19
HETATM   19  N   UNK N   1       4.799   0.729  -1.128  0.00  0.00    -0.268 N 
HETATM   20  C   UNK N   1       4.851   1.852  -1.868  0.00  0.00     0.118 A 
HETATM   21  C   UNK N   1       6.124   1.948  -2.400  0.00  0.00     0.038 A 
HETATM   22  C   UNK N   1       6.803   0.837  -1.924  0.00  0.00     0.109 A 
HETATM   23  N   UNK N   1       5.962   0.115  -1.159  0.00  0.00    -0.305 N 
ATOM     24  HN  UNK N   1       6.188  -0.760  -0.685  1.00  0.00     0.186 HD
ENDBRANCH  16  19
ENDBRANCH  12  13
ENDBRANCH  10  12
BRANCH   1  25
HETATM   25  C   UNK N   1      -3.848  -2.314   0.369  0.00  0.00     0.027 C 
HETATM   26  C   UNK N   1      -4.376  -2.125   1.782  0.00  0.00     0.007 C 
ENDBRANCH   1  25
TORSDOF 4
