REMARK  9 active torsions:
REMARK  status: ('A' for Active; 'I' for Inactive)
REMARK    1  A    between atoms: C_2  and  C_3 
REMARK    2  A    between atoms: C_3  and  C_6 
REMARK    3  A    between atoms: C_6  and  C_7 
REMARK       I    between atoms: C_7  and  N_9 
REMARK    4  A    between atoms: N_9  and  C_10 
REMARK    5  A    between atoms: C_10  and  C_12 
REMARK    6  A    between atoms: C_12  and  C_13 
REMARK    7  A    between atoms: C_13  and  N_15 
REMARK       I    between atoms: N_15  and  C_16 
REMARK    8  A    between atoms: C_16  and  C_18 
REMARK    9  A    between atoms: C_20  and  C_21 
ROOT
HETATM    1  C   UNK N   1      -0.012   1.319   1.838  0.00  0.00     0.082 C 
HETATM    2  C   UNK N   1       0.345   2.799   1.925  0.00  0.00     0.032 C 
ENDROOT
BRANCH   1   3
HETATM    3  C   UNK N   1      -1.301   1.142   1.035  0.00  0.00     0.049 C 
BRANCH   3   4
HETATM    4  C   UNK N   1      -1.111   0.939  -0.472  0.00  0.00     0.082 C 
HETATM    5  C   UNK N   1      -0.461   2.149  -1.120  0.00  0.00     0.032 C 
BRANCH   4   6
HETATM    6  N   UNK N   1      -2.385   0.694  -1.111  0.00  0.00    -0.357 N 
HETATM    7  C   UNK N   1      -3.189  -0.351  -0.789  0.00  0.00     0.218 C 
HETATM    8  O   UNK N   1      -2.865  -1.140   0.087  0.00  0.00    -0.274 OA
HETATM    9  H   UNK N   1      -2.685   1.316  -1.814  0.00  0.00     0.162 HD
BRANCH   7  10
HETATM   10  C   UNK N   1      -4.473  -0.550  -1.546  0.00  0.00     0.115 C 
BRANCH  10  11
HETATM   11  C   UNK N   1      -5.742  -0.578  -0.686  0.00  0.00    -0.023 C 
HETATM   12  C   UNK N   1      -5.748  -1.817   0.198  0.00  0.00     0.019 C 
HETATM   13  C   UNK N   1      -6.928  -0.663  -1.631  0.00  0.00     0.019 C 
BRANCH  11  14
HETATM   14  C   UNK N   1      -5.845   0.673   0.148  0.00  0.00    -0.028 C 
HETATM   15  C   UNK N   1      -6.874   0.894   0.971  0.00  0.00     0.007 C 
ENDBRANCH  11  14
ENDBRANCH  10  11
ENDBRANCH   7  10
ENDBRANCH   4   6
ENDBRANCH   3   4
ENDBRANCH   1   3
BRANCH   1  16
HETATM   16  N   UNK N   1       1.047   0.428   1.364  0.00  0.00    -0.351 N 
HETATM   17  C   UNK N   1       2.344   0.766   1.109  0.00  0.00     0.277 C 
HETATM   18  O   UNK N   1       2.753   1.897   1.316  0.00  0.00    -0.265 OA
HETATM   19  H   UNK N   1       0.798  -0.512   1.213  0.00  0.00     0.163 HD
BRANCH  17  20
HETATM   20  C   UNK N   1       3.272  -0.238   0.573  0.00  0.00     0.168 A 
HETATM   21  C   UNK N   1       4.598  -0.012   0.261  0.00  0.00     0.072 A 
HETATM   22  C   UNK N   1       5.022  -1.234  -0.222  0.00  0.00     0.039 A 
HETATM   23  N   UNK N   1       4.002  -2.113  -0.189  0.00  0.00    -0.264 N 
HETATM   24  O   UNK N   1       2.970  -1.485   0.292  0.00  0.00    -0.232 OA
ATOM     25  HN  UNK N   1       4.033  -3.089  -0.485  1.00  0.00     0.194 HD
BRANCH  22  26
HETATM   26  C   UNK N   1       6.391  -1.555  -0.726  0.00  0.00     0.029 C 
HETATM   27  C   UNK N   1       7.419  -1.366   0.374  0.00  0.00     0.016 C 
HETATM   28  C   UNK N   1       6.740  -0.663  -1.903  0.00  0.00     0.016 C 
ENDBRANCH  22  26
ENDBRANCH  17  20
ENDBRANCH   1  16
TORSDOF 9
