REMARK  9 active torsions:
REMARK  status: ('A' for Active; 'I' for Inactive)
REMARK    1  A    between atoms: C_2  and  C_4 
REMARK    2  A    between atoms: C_4  and  C_5 
REMARK    3  A    between atoms: C_5  and  C_6 
REMARK       I    between atoms: C_6  and  N_8 
REMARK    4  A    between atoms: N_8  and  C_9 
REMARK    5  A    between atoms: N_8  and  C_19 
REMARK    6  A    between atoms: C_9  and  C_10 
REMARK    7  A    between atoms: C_10  and  N_11 
REMARK       I    between atoms: N_11  and  C_12 
REMARK    8  A    between atoms: C_12  and  C_14 
REMARK    9  A    between atoms: C_15  and  C_17 
ROOT
HETATM    1  C   UNK N   1      -1.973  -0.049   0.416  0.00  0.00     0.220 C 
HETATM    2  O   UNK N   1      -1.716  -0.211  -0.772  0.00  0.00    -0.273 OA
HETATM    3  N   UNK N   1      -1.624  -1.016   1.319  0.00  0.00    -0.346 N 
ENDROOT
BRANCH   3   4
HETATM    4  C   UNK N   1      -1.039  -2.252   0.838  0.00  0.00     0.146 C 
BRANCH   4   5
HETATM    5  C   UNK N   1       0.480  -2.219   0.923  0.00  0.00     0.143 C 
BRANCH   5   6
HETATM    6  N   UNK N   1       1.027  -1.172   0.089  0.00  0.00    -0.356 N 
HETATM    7  C   UNK N   1       2.365  -0.990  -0.017  0.00  0.00     0.241 C 
HETATM    8  O   UNK N   1       3.130  -1.729   0.587  0.00  0.00    -0.269 OA
HETATM    9  H   UNK N   1       0.418  -0.581  -0.409  0.00  0.00     0.162 HD
BRANCH   7  10
HETATM   10  C   UNK N   1       2.889   0.115  -0.859  0.00  0.00     0.076 C 
HETATM   11  C   UNK N   1       4.191   0.387  -1.071  0.00  0.00    -0.079 C 
HETATM   12  C   UNK N   1       5.292  -0.441  -0.479  0.00  0.00     0.043 C 
BRANCH  11  13
HETATM   13  C   UNK N   1       4.557   1.541  -1.949  0.00  0.00     0.029 C 
HETATM   14  C   UNK N   1       5.391   2.553  -1.182  0.00  0.00     0.010 C 
ENDBRANCH  11  13
ENDBRANCH   7  10
ENDBRANCH   5   6
ENDBRANCH   4   5
ENDBRANCH   3   4
BRANCH   3  15
HETATM   15  C   UNK N   1      -1.951  -0.886   2.735  0.00  0.00     0.087 A 
HETATM   16  C   UNK N   1      -0.748  -1.185   3.621  0.00  0.00     0.027 A 
HETATM   17  C   UNK N   1      -1.144   0.245   3.361  0.00  0.00     0.027 A 
ENDBRANCH   3  15
BRANCH   1  18
HETATM   18  C   UNK N   1      -2.698   1.203   0.853  0.00  0.00     0.107 C 
BRANCH  18  19
HETATM   19  C   UNK N   1      -3.083   2.137  -0.299  0.00  0.00     0.042 C 
BRANCH  19  20
HETATM   20  C   UNK N   1      -4.098   1.516  -1.212  0.00  0.00    -0.093 C 
HETATM   21  C   UNK N   1      -3.820   1.367  -2.504  0.00  0.00     0.014 C 
HETATM   22  C   UNK N   1      -5.427   1.087  -0.690  0.00  0.00     0.042 C 
ENDBRANCH  19  20
ENDBRANCH  18  19
ENDBRANCH   1  18
TORSDOF 9
