REMARK  3 active torsions:
REMARK  status: ('A' for Active; 'I' for Inactive)
REMARK    1  A    between atoms: C_3  and  C_2 
REMARK       I    between atoms: N_11  and  C_12 
REMARK    2  A    between atoms: C_12  and  C_14 
REMARK    3  A    between atoms: C_16  and  C_17 
ROOT
HETATM    1  C   UNK N   1      -1.315   0.213  -0.540  0.00  0.00     0.137 C 
HETATM    2  C   UNK N   1      -2.431  -0.770  -0.438  0.00  0.00     0.034 A 
HETATM    3  C   UNK N   1      -2.482  -2.086  -0.838  0.00  0.00     0.028 A 
HETATM    4  C   UNK N   1      -3.742  -2.543  -0.448  0.00  0.00     0.019 A 
HETATM    5  C   UNK N   1      -4.379  -1.483   0.189  0.00  0.00     0.091 A 
HETATM    6  N   UNK N   1      -3.560  -0.423   0.175  0.00  0.00    -0.357 N 
HETATM    7  C   UNK N   1      -3.744   0.892   0.770  0.00  0.00     0.148 C 
HETATM    8  C   UNK N   1      -2.429   1.315   1.466  0.00  0.00     0.147 C 
HETATM    9  N   UNK N   1      -1.208   0.862   0.769  0.00  0.00    -0.335 N 
HETATM   10  C   UNK N   1       0.004   1.040   1.390  0.00  0.00     0.272 C 
HETATM   11  O   UNK N   1       0.034   1.576   2.491  0.00  0.00    -0.266 OA
ENDROOT
BRANCH  10  12
HETATM   12  C   UNK N   1       1.309   0.623   0.800  0.00  0.00     0.118 A 
HETATM   13  C   UNK N   1       1.550   0.005  -0.417  0.00  0.00     0.064 A 
HETATM   14  C   UNK N   1       2.928  -0.153  -0.442  0.00  0.00     0.035 A 
HETATM   15  N   UNK N   1       3.459   0.343   0.690  0.00  0.00    -0.303 N 
HETATM   16  N   UNK N   1       2.480   0.814   1.441  0.00  0.00    -0.295 N 
ATOM     17  HN  UNK N   1       4.451   0.354   0.928  1.00  0.00     0.186 HD
HETATM   18  H   UNK N   1       2.587   1.236   2.324  0.00  0.00     0.187 HD
BRANCH  14  19
HETATM   19  C   UNK N   1       3.751  -0.787  -1.534  0.00  0.00    -0.007 C 
HETATM   20  C   UNK N   1       4.475  -1.999  -0.979  0.00  0.00     0.021 C 
HETATM   21  C   UNK N   1       2.892  -1.234  -2.705  0.00  0.00     0.021 C 
HETATM   22  C   UNK N   1       4.779   0.206  -2.043  0.00  0.00     0.021 C 
ENDBRANCH  14  19
ENDBRANCH  10  12
BRANCH   1  23
HETATM   23  C   UNK N   1      -1.704   1.245  -1.599  0.00  0.00     0.027 C 
HETATM   24  C   UNK N   1      -0.667   2.345  -1.715  0.00  0.00     0.007 C 
ENDBRANCH   1  23
TORSDOF 3
