REMARK  5 active torsions:
REMARK  status: ('A' for Active; 'I' for Inactive)
REMARK    1  A    between atoms: C_5  and  N_6 
REMARK    2  A    between atoms: C_9  and  C_10 
REMARK    3  A    between atoms: C_10  and  N_11 
REMARK    4  A    between atoms: N_11  and  C_12 
REMARK    5  A    between atoms: C_12  and  C_13 
ROOT
HETATM    1  N   UNK N   1      -1.148   1.266  -1.710  0.00  0.00     0.088 N 
HETATM    2  H   UNK N   1      -1.503   0.365  -2.028  0.00  0.00     0.316 HD
ENDROOT
BRANCH   1   3
HETATM    3  C   UNK N   1       0.308   1.244  -1.650  0.00  0.00     0.276 C 
BRANCH   3   4
HETATM    4  C   UNK N   1       0.799  -0.166  -1.339  0.00  0.00     0.033 C 
HETATM    5  C   UNK N   1       0.672  -0.412   0.162  0.00  0.00     0.027 C 
HETATM    6  C   UNK N   1       1.992   0.043   0.755  0.00  0.00     0.123 C 
HETATM    7  N   UNK N   1       2.913  -0.066  -0.339  0.00  0.00    -0.380 N 
HETATM    8  C   UNK N   1       2.293  -0.273  -1.618  0.00  0.00     0.129 C 
BRANCH   7   9
HETATM    9  C   UNK N   1       4.321  -0.157  -0.136  0.00  0.00     0.030 A 
HETATM   10  C   UNK N   1       4.867   0.063   1.139  0.00  0.00     0.032 A 
HETATM   11  C   UNK N   1       6.240  -0.075   1.356  0.00  0.00     0.044 A 
HETATM   12  C   UNK N   1       7.079  -0.446   0.303  0.00  0.00     0.116 A 
HETATM   13  F   UNK N   1       8.407  -0.600   0.520  0.00  0.00    -0.206 F 
HETATM   14  C   UNK N   1       6.548  -0.663  -0.972  0.00  0.00     0.044 A 
HETATM   15  C   UNK N   1       5.175  -0.515  -1.193  0.00  0.00     0.032 A 
ENDBRANCH   7   9
ENDBRANCH   3   4
ENDBRANCH   1   3
BRANCH   1  16
HETATM   16  C   UNK N   1      -1.674   1.581  -0.388  0.00  0.00     0.310 C 
BRANCH  16  17
HETATM   17  C   UNK N   1      -3.099   1.130  -0.306  0.00  0.00    -0.003 A 
HETATM   18  C   UNK N   1      -4.044   1.691  -1.173  0.00  0.00     0.014 A 
HETATM   19  C   UNK N   1      -5.375   1.268  -1.142  0.00  0.00     0.044 A 
HETATM   20  C   UNK N   1      -5.779   0.278  -0.244  0.00  0.00     0.128 A 
HETATM   21  F   UNK N   1      -7.073  -0.129  -0.237  0.00  0.00    -0.205 F 
HETATM   22  C   UNK N   1      -4.847  -0.288   0.636  0.00  0.00     0.030 A 
HETATM   23  C   UNK N   1      -5.230  -1.280   1.544  0.00  0.00     0.018 A 
HETATM   24  C   UNK N   1      -3.497   0.138   0.612  0.00  0.00     0.053 A 
HETATM   25  C   UNK N   1      -4.285  -1.830   2.409  0.00  0.00     0.018 A 
HETATM   26  C   UNK N   1      -2.963  -1.384   2.358  0.00  0.00     0.088 A 
HETATM   27  N   UNK N   1      -2.598  -0.419   1.468  0.00  0.00    -0.365 N 
ATOM     28  HN  UNK N   1      -1.627  -0.108   1.443  1.00  0.00     0.165 HD
ENDBRANCH  16  17
ENDBRANCH   1  16
TORSDOF 5
