REMARK  7 active torsions:
REMARK  status: ('A' for Active; 'I' for Inactive)
REMARK    1  A    between atoms: C_2  and  C_3 
REMARK    2  A    between atoms: C_5  and  C_6 
REMARK       I    between atoms: C_6  and  N_8 
REMARK    3  A    between atoms: N_8  and  C_9 
REMARK    4  A    between atoms: C_9  and  C_10 
REMARK    5  A    between atoms: C_10  and  N_11 
REMARK       I    between atoms: N_11  and  C_12 
REMARK    6  A    between atoms: N_11  and  C_22 
REMARK    7  A    between atoms: C_12  and  C_14 
ROOT
HETATM    1  N   UNK N   1      -0.729  -0.159  -1.092  0.00  0.00    -0.340 N 
HETATM    2  C   UNK N   1      -1.309   0.566  -0.077  0.00  0.00     0.278 C 
HETATM    3  O   UNK N   1      -0.615   0.928   0.867  0.00  0.00    -0.265 OA
ENDROOT
BRANCH   1   4
HETATM    4  C   UNK N   1       0.694  -0.446  -1.031  0.00  0.00     0.146 C 
BRANCH   4   5
HETATM    5  C   UNK N   1       0.952  -1.773  -0.325  0.00  0.00     0.143 C 
BRANCH   5   6
HETATM    6  N   UNK N   1       2.372  -2.034  -0.256  0.00  0.00    -0.356 N 
HETATM    7  C   UNK N   1       3.217  -1.246   0.452  0.00  0.00     0.241 C 
HETATM    8  O   UNK N   1       2.787  -0.276   1.061  0.00  0.00    -0.269 OA
HETATM    9  H   UNK N   1       2.738  -2.811  -0.739  0.00  0.00     0.162 HD
BRANCH   7  10
HETATM   10  C   UNK N   1       4.663  -1.571   0.470  0.00  0.00     0.076 C 
HETATM   11  C   UNK N   1       5.620  -0.844   1.073  0.00  0.00    -0.079 C 
HETATM   12  C   UNK N   1       7.032  -1.317   0.999  0.00  0.00     0.043 C 
BRANCH  11  13
HETATM   13  C   UNK N   1       5.316   0.421   1.821  0.00  0.00     0.029 C 
HETATM   14  C   UNK N   1       5.909   1.619   1.105  0.00  0.00     0.010 C 
ENDBRANCH  11  13
ENDBRANCH   7  10
ENDBRANCH   5   6
ENDBRANCH   4   5
ENDBRANCH   1   4
BRANCH   1  15
HETATM   15  C   UNK N   1      -1.506  -0.582  -2.253  0.00  0.00     0.087 A 
HETATM   16  C   UNK N   1      -0.731  -1.463  -3.225  0.00  0.00     0.027 A 
HETATM   17  C   UNK N   1      -1.696  -2.087  -2.241  0.00  0.00     0.027 A 
ENDBRANCH   1  15
BRANCH   2  18
HETATM   18  C   UNK N   1      -2.757   0.934  -0.041  0.00  0.00     0.143 A 
HETATM   19  N   UNK N   1      -3.311   1.631   0.990  0.00  0.00    -0.349 N 
HETATM   20  C   UNK N   1      -4.664   1.844   0.821  0.00  0.00     0.019 A 
ATOM     21  HN  UNK N   1      -2.784   1.960   1.799  1.00  0.00     0.166 HD
HETATM   22  C   UNK N   1      -5.475   2.580   1.829  0.00  0.00     0.069 C 
HETATM   23  C   UNK N   1      -5.203   1.312  -0.358  0.00  0.00     0.003 A 
HETATM   24  C   UNK N   1      -6.615   1.370  -0.823  0.00  0.00     0.058 C 
HETATM   25  S   UNK N   1      -3.952   0.592  -1.147  0.00  0.00    -0.070 SA
ENDBRANCH   2  18
TORSDOF 7
