REMARK  9 active torsions:
REMARK  status: ('A' for Active; 'I' for Inactive)
REMARK    1  A    between atoms: C_2  and  O_1 
REMARK    2  A    between atoms: C_2  and  C_3 
REMARK    3  A    between atoms: C_2  and  C_18 
REMARK    4  A    between atoms: C_3  and  N_4 
REMARK    5  A    between atoms: N_4  and  C_5 
REMARK    6  A    between atoms: C_5  and  C_6 
REMARK    7  A    between atoms: C_18  and  O_19 
REMARK    8  A    between atoms: O_19  and  C_20 
REMARK    9  A    between atoms: C_23  and  C_24 
ROOT
HETATM    1  C   UNK N   1      -0.951  -0.201   0.691  0.00  0.00     0.303 C 
ENDROOT
BRANCH   1   2
HETATM    2  C   UNK N   1       0.483   0.151   0.364  0.00  0.00     0.170 C 
BRANCH   2   3
HETATM    3  O   UNK N   1       1.346  -0.752   0.988  0.00  0.00    -0.392 OA
HETATM    4  H   UNK N   1       1.166  -0.766   1.941  0.00  0.00     0.210 HD
ENDBRANCH   2   3
BRANCH   2   5
HETATM    5  C   UNK N   1       0.733   0.204  -1.145  0.00  0.00     0.209 C 
BRANCH   5   6
HETATM    6  O   UNK N   1       1.799   1.041  -1.406  0.00  0.00    -0.349 OA
BRANCH   6   7
HETATM    7  C   UNK N   1       3.078   0.737  -1.083  0.00  0.00     0.068 A 
HETATM    8  C   UNK N   1       3.483  -0.592  -0.872  0.00  0.00     0.037 A 
HETATM    9  C   UNK N   1       4.778  -0.872  -0.442  0.00  0.00     0.019 A 
HETATM   10  C   UNK N   1       5.683   0.171  -0.212  0.00  0.00     0.048 A 
HETATM   11  C   UNK N   1       5.291   1.495  -0.460  0.00  0.00     0.019 A 
HETATM   12  C   UNK N   1       3.996   1.774  -0.902  0.00  0.00     0.037 A 
BRANCH  10  13
HETATM   13  C   UNK N   1       7.046  -0.139   0.327  0.00  0.00     0.417 C 
HETATM   14  F   UNK N   1       7.730  -0.939  -0.568  0.00  0.00    -0.166 F 
HETATM   15  F   UNK N   1       7.772   1.020   0.544  0.00  0.00    -0.166 F 
HETATM   16  F   UNK N   1       6.916  -0.811   1.530  0.00  0.00    -0.166 F 
ENDBRANCH  10  13
ENDBRANCH   6   7
ENDBRANCH   5   6
ENDBRANCH   2   5
ENDBRANCH   1   2
BRANCH   1  17
HETATM   17  N   UNK N   1      -1.282  -1.548   0.249  0.00  0.00     0.090 N 
HETATM   18  H   UNK N   1      -0.554  -2.209   0.520  0.00  0.00     0.316 HD
BRANCH  17  19
HETATM   19  C   UNK N   1      -2.546  -1.882   0.884  0.00  0.00     0.310 C 
BRANCH  19  20
HETATM   20  C   UNK N   1      -3.688  -1.338   0.084  0.00  0.00    -0.003 A 
HETATM   21  C   UNK N   1      -4.123  -2.029  -1.051  0.00  0.00     0.014 A 
HETATM   22  C   UNK N   1      -5.189  -1.539  -1.809  0.00  0.00     0.044 A 
HETATM   23  C   UNK N   1      -5.827  -0.350  -1.445  0.00  0.00     0.128 A 
HETATM   24  F   UNK N   1      -6.860   0.111  -2.193  0.00  0.00    -0.205 F 
HETATM   25  C   UNK N   1      -5.394   0.356  -0.314  0.00  0.00     0.030 A 
HETATM   26  C   UNK N   1      -6.008   1.553   0.065  0.00  0.00     0.018 A 
HETATM   27  C   UNK N   1      -4.320  -0.139   0.459  0.00  0.00     0.053 A 
HETATM   28  C   UNK N   1      -5.555   2.241   1.191  0.00  0.00     0.018 A 
HETATM   29  C   UNK N   1      -4.490   1.722   1.930  0.00  0.00     0.088 A 
HETATM   30  N   UNK N   1      -3.901   0.554   1.556  0.00  0.00    -0.365 N 
ATOM     31  HN  UNK N   1      -3.126   0.188   2.109  1.00  0.00     0.165 HD
ENDBRANCH  19  20
ENDBRANCH  17  19
ENDBRANCH   1  17
TORSDOF 9
