REMARK  4 active torsions:
REMARK  status: ('A' for Active; 'I' for Inactive)
REMARK    1  A    between atoms: C_4  and  C_5 
REMARK    2  A    between atoms: C_7  and  C_8 
REMARK       I    between atoms: C_8  and  N_10 
REMARK    3  A    between atoms: C_14  and  C_16 
REMARK    4  A    between atoms: C_16  and  O_17 
ROOT
HETATM    1  C   UNK N   1       2.304  -0.002  -0.008  0.00  0.00     0.048 A 
HETATM    2  C   UNK N   1       1.020   0.596  -0.124  0.00  0.00     0.048 A 
HETATM    3  C   UNK N   1       0.025   0.307   0.827  0.00  0.00     0.051 A 
HETATM    4  C   UNK N   1       0.356  -0.569   1.857  0.00  0.00     0.057 A 
HETATM    5  C   UNK N   1      -0.320  -1.079   2.942  0.00  0.00     0.044 A 
HETATM    6  C   UNK N   1      -1.729  -0.805   3.339  0.00  0.00     0.071 C 
HETATM    7  N   UNK N   1       0.518  -1.900   3.619  0.00  0.00    -0.263 N 
ATOM      8  HN  UNK N   1       0.299  -2.421   4.467  1.00  0.00     0.194 HD
HETATM    9  O   UNK N   1       1.663  -1.899   2.983  0.00  0.00    -0.219 OA
HETATM   10  C   UNK N   1       1.593  -1.118   1.934  0.00  0.00     0.184 A 
HETATM   11  N   UNK N   1       2.568  -0.857   1.032  0.00  0.00    -0.334 N 
ATOM     12  HN  UNK N   1       3.487  -1.290   1.125  1.00  0.00     0.168 HD
ENDROOT
BRANCH   3  13
HETATM   13  C   UNK N   1      -1.312   0.917   0.751  0.00  0.00     0.255 C 
HETATM   14  O   UNK N   1      -1.510   1.967   1.346  0.00  0.00    -0.267 OA
HETATM   15  N   UNK N   1      -2.331   0.299   0.089  0.00  0.00    -0.347 N 
HETATM   16  C   UNK N   1      -2.100  -0.941  -0.630  0.00  0.00     0.126 C 
HETATM   17  C   UNK N   1      -3.664   0.887   0.104  0.00  0.00     0.137 C 
HETATM   18  C   UNK N   1      -2.659  -0.833  -2.050  0.00  0.00     0.021 C 
HETATM   19  C   UNK N   1      -4.088  -0.255  -2.087  0.00  0.00     0.014 C 
HETATM   20  C   UNK N   1      -4.675   0.062  -0.702  0.00  0.00    -0.006 C 
HETATM   21  C   UNK N   1      -4.999  -1.230   0.035  0.00  0.00     0.019 C 
BRANCH  20  22
HETATM   22  C   UNK N   1      -5.976   0.840  -0.847  0.00  0.00     0.175 C 
BRANCH  22  23
HETATM   23  O   UNK N   1      -5.764   2.060  -1.494  0.00  0.00    -0.400 OA
HETATM   24  H   UNK N   1      -5.156   2.603  -0.969  0.00  0.00     0.209 HD
ENDBRANCH  22  23
ENDBRANCH  20  22
ENDBRANCH   3  13
BRANCH   1  25
HETATM   25  C   UNK N   1       3.354   0.299  -1.001  0.00  0.00     0.022 A 
HETATM   26  C   UNK N   1       3.227   1.139  -2.095  0.00  0.00     0.048 A 
HETATM   27  C   UNK N   1       4.463   1.097  -2.716  0.00  0.00     0.050 A 
HETATM   28  C   UNK N   1       4.836   1.838  -3.950  0.00  0.00     0.076 C 
HETATM   29  O   UNK N   1       5.280   0.303  -2.064  0.00  0.00    -0.319 OA
HETATM   30  C   UNK N   1       4.648  -0.193  -1.030  0.00  0.00     0.062 A 
HETATM   31  C   UNK N   1       5.271  -1.138  -0.061  0.00  0.00     0.077 C 
ENDBRANCH   1  25
TORSDOF 4
