REMARK  6 active torsions:
REMARK  status: ('A' for Active; 'I' for Inactive)
REMARK    1  A    between atoms: C_8  and  C_7 
REMARK       I    between atoms: N_10  and  C_11 
REMARK    2  A    between atoms: C_11  and  C_13 
REMARK    3  A    between atoms: C_14  and  C_15 
REMARK    4  A    between atoms: C_18  and  O_19 
REMARK    5  A    between atoms: O_19  and  C_20 
REMARK    6  A    between atoms: C_20  and  C_21 
REMARK       I    between atoms: C_21  and  N_22 
ROOT
HETATM    1  C   UNK N   1      -3.725   0.019  -1.033  0.00  0.00     0.172 C 
HETATM    2  C   UNK N   1      -3.384  -0.726   0.274  0.00  0.00     0.163 C 
HETATM    3  N   UNK N   1      -1.943  -0.757   0.374  0.00  0.00    -0.344 N 
HETATM    4  C   UNK N   1      -1.283  -0.261   1.460  0.00  0.00     0.243 C 
HETATM    5  O   UNK N   1      -1.891   0.158   2.432  0.00  0.00    -0.268 OA
HETATM    6  C   UNK N   1      -1.207  -1.211  -0.788  0.00  0.00     0.152 C 
HETATM    7  C   UNK N   1      -1.695  -0.397  -1.978  0.00  0.00     0.188 C 
HETATM    8  O   UNK N   1      -3.077  -0.610  -2.123  0.00  0.00    -0.378 OA
ENDROOT
BRANCH   4   9
HETATM    9  C   UNK N   1       0.183  -0.198   1.405  0.00  0.00     0.075 C 
HETATM   10  C   UNK N   1       1.053   0.295   2.287  0.00  0.00     0.017 C 
BRANCH  10  11
HETATM   11  C   UNK N   1       2.475   0.290   1.876  0.00  0.00    -0.036 A 
HETATM   12  C   UNK N   1       2.809  -0.158   0.588  0.00  0.00     0.014 A 
HETATM   13  C   UNK N   1       4.122  -0.173   0.158  0.00  0.00     0.037 A 
HETATM   14  C   UNK N   1       5.148   0.260   1.004  0.00  0.00     0.069 A 
HETATM   15  C   UNK N   1       4.829   0.717   2.294  0.00  0.00     0.037 A 
HETATM   16  C   UNK N   1       3.492   0.735   2.731  0.00  0.00     0.014 A 
BRANCH  14  17
HETATM   17  O   UNK N   1       6.437   0.230   0.587  0.00  0.00    -0.342 OA
BRANCH  17  18
HETATM   18  C   UNK N   1       6.774  -0.214  -0.679  0.00  0.00     0.278 C 
BRANCH  18  19
HETATM   19  C   UNK N   1       8.250  -0.297  -0.884  0.00  0.00     0.239 C 
HETATM   20  N   UNK N   1       9.105   0.045   0.100  0.00  0.00    -0.368 N 
HETATM   21  H   UNK N   1       8.758   0.361   0.965  0.00  0.00     0.159 HD
HETATM   22  H   UNK N   1      10.076  -0.021  -0.047  0.00  0.00     0.159 HD
HETATM   23  O   UNK N   1       8.683  -0.688  -1.955  0.00  0.00    -0.271 OA
ENDBRANCH  18  19
ENDBRANCH  17  18
ENDBRANCH  14  17
ENDBRANCH  10  11
ENDBRANCH   4   9
BRANCH   1  24
HETATM   24  C   UNK N   1      -5.214   0.069  -1.258  0.00  0.00    -0.022 A 
HETATM   25  C   UNK N   1      -5.765  -0.557  -2.389  0.00  0.00     0.010 A 
HETATM   26  C   UNK N   1      -7.139  -0.521  -2.623  0.00  0.00     0.001 A 
HETATM   27  C   UNK N   1      -7.980   0.144  -1.731  0.00  0.00     0.001 A 
HETATM   28  C   UNK N   1      -7.447   0.777  -0.606  0.00  0.00     0.007 A 
HETATM   29  C   UNK N   1      -6.070   0.747  -0.363  0.00  0.00    -0.053 A 
HETATM   30  C   UNK N   1      -5.542   1.448   0.844  0.00  0.00     0.049 C 
ENDBRANCH   1  24
TORSDOF 6
