REMARK  2 active torsions:
REMARK  status: ('A' for Active; 'I' for Inactive)
REMARK    1  A    between atoms: C_5  and  C_6 
REMARK       I    between atoms: C_6  and  N_8 
REMARK    2  A    between atoms: N_11  and  C_12 
ROOT
HETATM    1  C   UNK N   1      -2.485  -0.275  -0.341  0.00  0.00     0.051 A 
HETATM    2  C   UNK N   1      -2.740   0.654  -1.360  0.00  0.00     0.031 A 
HETATM    3  C   UNK N   1      -3.804   1.535  -1.273  0.00  0.00     0.002 A 
HETATM    4  C   UNK N   1      -4.635   1.502  -0.157  0.00  0.00     0.002 A 
HETATM    5  C   UNK N   1      -4.404   0.583   0.868  0.00  0.00     0.025 A 
HETATM    6  C   UNK N   1      -3.338  -0.311   0.790  0.00  0.00     0.071 A 
HETATM    7  C   UNK N   1      -3.165  -1.239   1.879  0.00  0.00     0.102 C 
HETATM    8  N   UNK N   1      -3.042  -1.977   2.762  0.00  0.00    -0.191 NA
ENDROOT
BRANCH   1   9
HETATM    9  N   UNK N   1      -1.380  -1.152  -0.497  0.00  0.00    -0.377 N 
HETATM   10  C   UNK N   1      -0.643  -1.147  -1.736  0.00  0.00     0.143 C 
HETATM   11  C   UNK N   1       0.803  -0.756  -1.462  0.00  0.00     0.145 C 
HETATM   12  N   UNK N   1       1.177  -1.002  -0.070  0.00  0.00    -0.347 N 
HETATM   13  C   UNK N   1       2.143  -0.265   0.535  0.00  0.00     0.249 C 
HETATM   14  C   UNK N   1       0.568  -2.087   0.658  0.00  0.00     0.145 C 
HETATM   15  O   UNK N   1       2.447  -0.459   1.699  0.00  0.00    -0.270 OA
HETATM   16  C   UNK N   1      -0.937  -2.029   0.563  0.00  0.00     0.143 C 
BRANCH  13  17
HETATM   17  C   UNK N   1       2.914   0.695  -0.235  0.00  0.00     0.214 C 
HETATM   18  C   UNK N   1       3.910  -0.071  -1.049  0.00  0.00     0.044 C 
HETATM   19  C   UNK N   1       4.907   1.007  -1.363  0.00  0.00     0.034 C 
HETATM   20  C   UNK N   1       4.459   2.151  -0.468  0.00  0.00     0.118 C 
HETATM   21  C   UNK N   1       3.552   3.090  -1.279  0.00  0.00     0.039 C 
HETATM   22  O   UNK N   1       3.693   1.554   0.539  0.00  0.00    -0.372 OA
ENDBRANCH  13  17
ENDBRANCH   1   9
TORSDOF 2
