REMARK  3 active torsions:
REMARK  status: ('A' for Active; 'I' for Inactive)
REMARK    1  A    between atoms: C_5  and  C_6 
REMARK    2  A    between atoms: C_6  and  N_7 
REMARK    3  A    between atoms: N_7  and  C_8 
ROOT
HETATM    1  C   UNK N   1      -1.049  -0.729  -0.951  0.00  0.00     0.106 A 
HETATM    2  C   UNK N   1      -1.134   0.616  -0.580  0.00  0.00     0.073 A 
HETATM    3  C   UNK N   1      -2.169   1.021   0.251  0.00  0.00     0.012 A 
HETATM    4  C   UNK N   1      -2.267   2.443   0.669  0.00  0.00     0.068 C 
HETATM    5  N   UNK N   1      -3.083   0.115   0.683  0.00  0.00    -0.322 N 
ATOM      6  HN  UNK N   1      -3.843   0.417   1.293  1.00  0.00     0.169 HD
HETATM    7  C   UNK N   1      -2.998  -1.190   0.311  0.00  0.00     0.267 A 
HETATM    8  F   UNK N   1      -3.922  -2.077   0.749  0.00  0.00    -0.165 F 
HETATM    9  N   UNK N   1      -1.985  -1.606  -0.498  0.00  0.00    -0.304 N 
ATOM     10  HN  UNK N   1      -1.927  -2.588  -0.768  1.00  0.00     0.171 HD
ENDROOT
BRANCH   1  11
HETATM   11  N   UNK N   1       0.006  -1.189  -1.783  0.00  0.00    -0.371 N 
HETATM   12  H   UNK N   1       0.041  -2.144  -2.021  0.00  0.00     0.161 HD
BRANCH  11  13
HETATM   13  C   UNK N   1       1.030  -0.304  -2.296  0.00  0.00     0.167 C 
BRANCH  13  14
HETATM   14  C   UNK N   1       1.898   0.200  -1.188  0.00  0.00     0.001 A 
HETATM   15  S   UNK N   1       1.973   1.762  -0.647  0.00  0.00    -0.104 SA
HETATM   16  C   UNK N   1       3.080   1.592   0.577  0.00  0.00     0.056 A 
HETATM   17  C   UNK N   1       3.430   0.235   0.575  0.00  0.00    -0.055 A 
HETATM   18  C   UNK N   1       4.419  -0.335   1.526  0.00  0.00     0.048 C 
HETATM   19  C   UNK N   1       2.771  -0.555  -0.408  0.00  0.00     0.023 A 
ENDBRANCH  13  14
ENDBRANCH  11  13
ENDBRANCH   1  11
TORSDOF 3
