REMARK  4 active torsions:
REMARK  status: ('A' for Active; 'I' for Inactive)
REMARK    1  A    between atoms: O_2  and  C_3 
REMARK    2  A    between atoms: C_5  and  C_3 
REMARK    3  A    between atoms: C_7  and  C_8 
REMARK       I    between atoms: N_15  and  C_16 
REMARK    4  A    between atoms: C_16  and  C_18 
ROOT
HETATM    1  C   UNK N   1      -0.269   1.731   0.272  0.00  0.00     0.104 C 
HETATM    2  C   UNK N   1      -1.406   0.771   0.518  0.00  0.00     0.027 C 
HETATM    3  C   UNK N   1      -1.583  -0.057  -0.737  0.00  0.00     0.037 C 
HETATM    4  C   UNK N   1      -0.352  -0.932  -0.954  0.00  0.00     0.135 C 
HETATM    5  N   UNK N   1       0.938  -0.317  -0.650  0.00  0.00    -0.345 N 
HETATM    6  C   UNK N   1       2.070  -1.032  -0.960  0.00  0.00     0.272 C 
HETATM    7  O   UNK N   1       1.955  -2.124  -1.503  0.00  0.00    -0.266 OA
HETATM    8  C   UNK N   1       1.043   0.974   0.031  0.00  0.00     0.141 C 
ENDROOT
BRANCH   6   9
HETATM    9  C   UNK N   1       3.453  -0.549  -0.671  0.00  0.00     0.124 A 
HETATM   10  C   UNK N   1       4.617  -1.325  -1.047  0.00  0.00     0.133 A 
HETATM   11  N   UNK N   1       5.814  -0.757  -0.722  0.00  0.00    -0.321 N 
HETATM   12  S   UNK N   1       5.359   0.634  -0.006  0.00  0.00     0.067 SA
ATOM     13  HN  UNK N   1       6.756  -1.114  -0.886  1.00  0.00     0.175 HD
HETATM   14  N   UNK N   1       3.730   0.634  -0.047  0.00  0.00    -0.307 N 
ATOM     15  HN  UNK N   1       3.081   1.338   0.305  1.00  0.00     0.176 HD
ENDBRANCH   6   9
BRANCH   3  16
HETATM   16  C   UNK N   1      -2.809  -0.935  -0.696  0.00  0.00    -0.052 A 
HETATM   17  C   UNK N   1      -3.638  -0.984   0.439  0.00  0.00     0.007 A 
HETATM   18  C   UNK N   1      -4.755  -1.822   0.463  0.00  0.00     0.001 A 
HETATM   19  C   UNK N   1      -5.053  -2.621  -0.643  0.00  0.00     0.000 A 
HETATM   20  C   UNK N   1      -4.239  -2.576  -1.778  0.00  0.00     0.001 A 
HETATM   21  C   UNK N   1      -3.122  -1.735  -1.805  0.00  0.00     0.007 A 
ENDBRANCH   3  16
BRANCH   1  22
HETATM   22  C   UNK N   1      -0.157   2.670   1.445  0.00  0.00     0.264 C 
HETATM   23  O   UNK N   1       0.890   2.755   2.076  0.00  0.00    -0.265 OA
BRANCH  22  24
HETATM   24  O   UNK N   1      -1.240   3.399   1.811  0.00  0.00    -0.326 OA
HETATM   25  C   UNK N   1      -1.244   4.200   2.930  0.00  0.00     0.213 C 
ENDBRANCH  22  24
ENDBRANCH   1  22
TORSDOF 4
