REMARK  6 active torsions:
REMARK  status: ('A' for Active; 'I' for Inactive)
REMARK    1  A    between atoms: C_2  and  C_3 
REMARK       I    between atoms: C_2  and  N_14 
REMARK    2  A    between atoms: C_6  and  O_7 
REMARK    3  A    between atoms: O_7  and  C_8 
REMARK    4  A    between atoms: C_17  and  S_18 
REMARK    5  A    between atoms: S_18  and  N_21 
REMARK    6  A    between atoms: N_21  and  C_22 
ROOT
HETATM    1  O   UNK N   1       0.157  -2.820  -0.513  0.00  0.00    -0.267 OA
HETATM    2  C   UNK N   1       0.128  -1.605  -0.645  0.00  0.00     0.253 C 
HETATM    3  N   UNK N   1      -1.075  -0.994  -0.884  0.00  0.00    -0.347 N 
HETATM    4  C   UNK N   1      -2.282  -1.758  -1.048  0.00  0.00     0.127 C 
HETATM    5  C   UNK N   1      -3.306  -0.731  -1.499  0.00  0.00     0.043 C 
HETATM    6  C   UNK N   1      -2.774   0.600  -0.986  0.00  0.00     0.143 C 
HETATM    7  C   UNK N   1      -1.268   0.423  -1.010  0.00  0.00     0.147 C 
ENDROOT
BRANCH   2   8
HETATM    8  C   UNK N   1       1.426  -0.860  -0.565  0.00  0.00     0.032 A 
HETATM    9  C   UNK N   1       2.612  -1.584  -0.355  0.00  0.00     0.020 A 
HETATM   10  C   UNK N   1       3.849  -0.935  -0.332  0.00  0.00     0.038 A 
HETATM   11  C   UNK N   1       3.916   0.448  -0.516  0.00  0.00     0.078 A 
HETATM   12  C   UNK N   1       2.745   1.180  -0.722  0.00  0.00     0.038 A 
HETATM   13  C   UNK N   1       1.511   0.529  -0.748  0.00  0.00     0.020 A 
BRANCH  11  14
HETATM   14  O   UNK N   1       5.111   1.072  -0.504  0.00  0.00    -0.255 OA
BRANCH  14  15
HETATM   15  C   UNK N   1       5.620   1.641   0.643  0.00  0.00     0.530 C 
HETATM   16  F   UNK N   1       5.811   0.666   1.607  0.00  0.00    -0.144 F 
HETATM   17  F   UNK N   1       4.752   2.604   1.127  0.00  0.00    -0.144 F 
HETATM   18  F   UNK N   1       6.834   2.232   0.354  0.00  0.00    -0.144 F 
ENDBRANCH  14  15
ENDBRANCH  11  14
ENDBRANCH   2   8
BRANCH   6  19
HETATM   19  S   UNK N   1      -3.326   0.779   0.743  0.00  0.00     0.215 S 
HETATM   20  O   UNK N   1      -3.086   2.166   1.358  0.00  0.00    -0.211 OA
HETATM   21  O   UNK N   1      -2.593  -0.151   1.722  0.00  0.00    -0.211 OA
BRANCH  19  22
HETATM   22  N   UNK N   1      -5.034   0.442   1.037  0.00  0.00    -0.215 NA
HETATM   23  H   UNK N   1      -5.258   0.555   2.026  0.00  0.00     0.140 HD
BRANCH  22  24
HETATM   24  C   UNK N   1      -5.796   1.374   0.227  0.00  0.00     0.071 A 
HETATM   25  C   UNK N   1      -7.271   1.068   0.370  0.00  0.00     0.022 A 
HETATM   26  C   UNK N   1      -6.660   2.220   1.137  0.00  0.00     0.022 A 
ENDBRANCH  22  24
ENDBRANCH  19  22
ENDBRANCH   6  19
TORSDOF 6
