REMARK  5 active torsions:
REMARK  status: ('A' for Active; 'I' for Inactive)
REMARK    1  A    between atoms: C_7  and  C_8 
REMARK    2  A    between atoms: C_11  and  N_12 
REMARK    3  A    between atoms: N_12  and  C_13 
REMARK    4  A    between atoms: C_13  and  C_14 
REMARK    5  A    between atoms: C_20  and  C_21 
ROOT
HETATM    1  N   UNK N   1      -0.474  -0.019  -2.123  0.00  0.00    -0.386 N 
HETATM    2  H   UNK N   1      -0.583  -0.376  -3.034  0.00  0.00     0.160 HD
ENDROOT
BRANCH   1   3
HETATM    3  C   UNK N   1       0.831   0.045  -1.576  0.00  0.00     0.028 A 
HETATM    4  C   UNK N   1       1.056   0.579  -0.298  0.00  0.00     0.030 A 
HETATM    5  C   UNK N   1       2.351   0.626   0.223  0.00  0.00     0.018 A 
HETATM    6  C   UNK N   1       3.429   0.144  -0.527  0.00  0.00     0.017 A 
HETATM    7  C   UNK N   1       3.204  -0.386  -1.804  0.00  0.00     0.018 A 
HETATM    8  C   UNK N   1       1.909  -0.435  -2.325  0.00  0.00     0.030 A 
BRANCH   6   9
HETATM    9  C   UNK N   1       4.787   0.197   0.025  0.00  0.00     0.174 A 
HETATM   10  N   UNK N   1       5.894  -0.236  -0.611  0.00  0.00    -0.277 N 
HETATM   11  N   UNK N   1       6.910  -0.017   0.208  0.00  0.00    -0.281 N 
ATOM     12  HN  UNK N   1       5.940  -0.651  -1.542  1.00  0.00     0.189 HD
HETATM   13  C   UNK N   1       6.394   0.542   1.319  0.00  0.00     0.136 A 
ATOM     14  HN  UNK N   1       7.892  -0.229   0.033  1.00  0.00     0.189 HD
HETATM   15  C   UNK N   1       7.190   0.953   2.504  0.00  0.00     0.099 C 
HETATM   16  O   UNK N   1       5.096   0.673   1.208  0.00  0.00    -0.278 OA
ENDBRANCH   6   9
ENDBRANCH   1   3
BRANCH   1  17
HETATM   17  C   UNK N   1      -1.653   0.413  -1.408  0.00  0.00     0.162 C 
BRANCH  17  18
HETATM   18  C   UNK N   1      -2.085  -0.590  -0.376  0.00  0.00     0.005 A 
HETATM   19  C   UNK N   1      -1.388  -1.707   0.050  0.00  0.00     0.120 A 
HETATM   20  N   UNK N   1      -2.159  -2.340   0.953  0.00  0.00    -0.307 N 
HETATM   21  C   UNK N   1      -1.804  -3.555   1.660  0.00  0.00     0.177 C 
HETATM   22  N   UNK N   1      -3.305  -1.698   1.115  0.00  0.00    -0.298 N 
HETATM   23  C   UNK N   1      -3.288  -0.614   0.316  0.00  0.00     0.069 A 
ATOM     24  HN  UNK N   1      -4.065  -1.975   1.736  1.00  0.00     0.187 HD
BRANCH  23  25
HETATM   25  C   UNK N   1      -4.409   0.345   0.221  0.00  0.00     0.008 A 
HETATM   26  C   UNK N   1      -4.282   1.544  -0.491  0.00  0.00     0.016 A 
HETATM   27  C   UNK N   1      -5.354   2.433  -0.562  0.00  0.00     0.018 A 
HETATM   28  C   UNK N   1      -6.554   2.106   0.071  0.00  0.00     0.087 A 
HETATM   29  N   UNK N   1      -6.668   0.936   0.755  0.00  0.00    -0.374 N 
HETATM   30  C   UNK N   1      -5.629   0.063   0.848  0.00  0.00     0.101 A 
ATOM     31  HN  UNK N   1      -7.553   0.708   1.209  1.00  0.00     0.164 HD
ENDBRANCH  23  25
ENDBRANCH  17  18
ENDBRANCH   1  17
TORSDOF 5
