REMARK  4 active torsions:
REMARK  status: ('A' for Active; 'I' for Inactive)
REMARK    1  A    between atoms: C_2  and  C_3 
REMARK       I    between atoms: C_2  and  N_13 
REMARK    2  A    between atoms: C_16  and  S_17 
REMARK    3  A    between atoms: S_17  and  N_20 
REMARK    4  A    between atoms: N_20  and  C_21 
ROOT
HETATM    1  O   UNK N   1       1.385  -3.094  -1.090  0.00  0.00    -0.267 OA
HETATM    2  C   UNK N   1       0.994  -2.076  -0.534  0.00  0.00     0.253 C 
HETATM    3  N   UNK N   1      -0.308  -2.008  -0.108  0.00  0.00    -0.347 N 
HETATM    4  C   UNK N   1      -1.246  -3.077  -0.325  0.00  0.00     0.127 C 
HETATM    5  C   UNK N   1      -2.574  -2.526   0.181  0.00  0.00     0.043 C 
HETATM    6  C   UNK N   1      -2.187  -1.391   1.119  0.00  0.00     0.143 C 
HETATM    7  C   UNK N   1      -0.852  -0.903   0.624  0.00  0.00     0.147 C 
ENDROOT
BRANCH   2   8
HETATM    8  C   UNK N   1       1.971  -0.955  -0.334  0.00  0.00     0.034 A 
HETATM    9  C   UNK N   1       3.348  -1.160  -0.636  0.00  0.00     0.019 A 
HETATM   10  C   UNK N   1       4.295  -0.130  -0.447  0.00  0.00     0.034 A 
HETATM   11  C   UNK N   1       3.822   1.087   0.031  0.00  0.00     0.074 A 
HETATM   12  N   UNK N   1       4.493   2.217   0.295  0.00  0.00    -0.282 N 
HETATM   13  C   UNK N   1       2.517   1.295   0.306  0.00  0.00     0.074 A 
HETATM   14  N   UNK N   1       3.587   3.095   0.725  0.00  0.00    -0.022 NA
HETATM   15  H   UNK N   1       5.460   2.367   0.193  0.00  0.00     0.184 HD
HETATM   16  N   UNK N   1       2.370   2.554   0.739  0.00  0.00    -0.282 N 
ATOM     17  HN  UNK N   1       1.502   3.007   1.023  1.00  0.00     0.184 HD
HETATM   18  C   UNK N   1       1.559   0.312   0.143  0.00  0.00     0.050 A 
ENDBRANCH   2   8
BRANCH   6  19
HETATM   19  S   UNK N   1      -3.376  -0.021   1.102  0.00  0.00     0.215 S 
HETATM   20  O   UNK N   1      -4.698  -0.375   1.797  0.00  0.00    -0.211 OA
HETATM   21  O   UNK N   1      -2.906   1.168   1.956  0.00  0.00    -0.211 OA
BRANCH  19  22
HETATM   22  N   UNK N   1      -3.844   0.690  -0.448  0.00  0.00    -0.215 NA
HETATM   23  H   UNK N   1      -4.492   1.465  -0.307  0.00  0.00     0.140 HD
BRANCH  22  24
HETATM   24  C   UNK N   1      -2.628   1.149  -1.097  0.00  0.00     0.071 A 
HETATM   25  C   UNK N   1      -2.943   1.538  -2.526  0.00  0.00     0.022 A 
HETATM   26  C   UNK N   1      -2.780   2.609  -1.471  0.00  0.00     0.022 A 
ENDBRANCH  22  24
ENDBRANCH  19  22
ENDBRANCH   6  19
TORSDOF 4
