REMARK  5 active torsions:
REMARK  status: ('A' for Active; 'I' for Inactive)
REMARK    1  A    between atoms: C_3  and  C_4 
REMARK    2  A    between atoms: C_4  and  N_5 
REMARK    3  A    between atoms: N_5  and  C_6 
REMARK    4  A    between atoms: N_9  and  C_10 
REMARK    5  A    between atoms: C_10  and  C_11 
ROOT
HETATM    1  C   UNK N   1       0.676  -0.740   0.336  0.00  0.00     0.117 A 
HETATM    2  C   UNK N   1       0.210  -1.908  -0.246  0.00  0.00     0.068 A 
HETATM    3  C   UNK N   1      -1.105  -2.001   0.186  0.00  0.00     0.114 A 
HETATM    4  N   UNK N   1      -1.365  -0.934   0.968  0.00  0.00    -0.297 N 
HETATM    5  N   UNK N   1      -0.293  -0.169   1.070  0.00  0.00    -0.284 N 
ATOM      6  HN  UNK N   1      -0.215   0.695   1.606  1.00  0.00     0.188 HD
ENDROOT
BRANCH   1   7
HETATM    7  N   UNK N   1       1.979  -0.198   0.195  0.00  0.00    -0.370 N 
HETATM    8  H   UNK N   1       2.198   0.656   0.634  0.00  0.00     0.161 HD
BRANCH   7   9
HETATM    9  C   UNK N   1       2.990  -0.877  -0.580  0.00  0.00     0.179 C 
BRANCH   9  10
HETATM   10  C   UNK N   1       4.251  -0.080  -0.626  0.00  0.00     0.044 A 
HETATM   11  C   UNK N   1       4.562   0.889  -1.554  0.00  0.00     0.047 A 
HETATM   12  C   UNK N   1       5.840   1.296  -1.205  0.00  0.00     0.109 A 
HETATM   13  N   UNK N   1       6.243   0.586  -0.131  0.00  0.00    -0.312 N 
HETATM   14  N   UNK N   1       5.280  -0.252   0.217  0.00  0.00    -0.304 N 
HETATM   15  H   UNK N   1       7.112   0.677   0.321  0.00  0.00     0.186 HD
ATOM     16  HN  UNK N   1       5.315  -0.914   0.992  1.00  0.00     0.186 HD
ENDBRANCH   9  10
ENDBRANCH   7   9
ENDBRANCH   1   7
BRANCH   4  17
HETATM   17  C   UNK N   1      -2.623  -0.669   1.653  0.00  0.00     0.186 C 
BRANCH  17  18
HETATM   18  C   UNK N   1      -3.553   0.111   0.783  0.00  0.00    -0.039 A 
HETATM   19  C   UNK N   1      -4.462  -0.555  -0.047  0.00  0.00     0.009 A 
HETATM   20  C   UNK N   1      -5.345   0.174  -0.849  0.00  0.00     0.001 A 
HETATM   21  C   UNK N   1      -5.325   1.572  -0.819  0.00  0.00     0.000 A 
HETATM   22  C   UNK N   1      -4.423   2.241   0.014  0.00  0.00     0.001 A 
HETATM   23  C   UNK N   1      -3.538   1.511   0.816  0.00  0.00     0.009 A 
ENDBRANCH  17  18
ENDBRANCH   4  17
TORSDOF 5
