REMARK  7 active torsions:
REMARK  status: ('A' for Active; 'I' for Inactive)
REMARK    1  A    between atoms: O_2  and  C_3 
REMARK    2  A    between atoms: C_5  and  C_3 
REMARK    3  A    between atoms: C_7  and  C_8 
REMARK       I    between atoms: N_15  and  C_16 
REMARK    4  A    between atoms: C_16  and  C_18 
REMARK    5  A    between atoms: C_18  and  S_19 
REMARK    6  A    between atoms: S_19  and  C_20 
REMARK    7  A    between atoms: C_20  and  C_21 
ROOT
HETATM    1  C   UNK N   1      -2.305   2.141  -0.443  0.00  0.00     0.104 C 
HETATM    2  C   UNK N   1      -2.773   0.734  -0.851  0.00  0.00     0.027 C 
HETATM    3  C   UNK N   1      -2.413  -0.289   0.233  0.00  0.00     0.037 C 
HETATM    4  C   UNK N   1      -0.889  -0.379   0.376  0.00  0.00     0.135 C 
HETATM    5  N   UNK N   1      -0.230   0.863   0.008  0.00  0.00    -0.350 N 
HETATM    6  C   UNK N   1       1.015   0.840  -0.547  0.00  0.00     0.229 C 
HETATM    7  O   UNK N   1       1.549   1.883  -0.899  0.00  0.00    -0.273 OA
HETATM    8  C   UNK N   1      -0.919   2.122   0.225  0.00  0.00     0.140 C 
ENDROOT
BRANCH   6   9
HETATM    9  C   UNK N   1       1.769  -0.447  -0.728  0.00  0.00     0.177 C 
BRANCH   9  10
HETATM   10  S   UNK N   1       2.193  -1.192   0.887  0.00  0.00    -0.154 SA
BRANCH  10  11
HETATM   11  C   UNK N   1       3.391   0.118   1.279  0.00  0.00     0.131 C 
BRANCH  11  12
HETATM   12  C   UNK N   1       4.695  -0.173   0.631  0.00  0.00     0.018 A 
HETATM   13  C   UNK N   1       5.107   0.594  -0.461  0.00  0.00     0.026 A 
HETATM   14  C   UNK N   1       6.326   0.307  -1.075  0.00  0.00     0.003 A 
HETATM   15  C   UNK N   1       7.119  -0.732  -0.588  0.00  0.00     0.017 A 
HETATM   16  C   UNK N   1       6.676  -1.474   0.510  0.00  0.00     0.088 A 
HETATM   17  N   UNK N   1       5.480  -1.185   1.092  0.00  0.00    -0.369 N 
ATOM     18  HN  UNK N   1       5.166  -1.738   1.889  1.00  0.00     0.165 HD
ENDBRANCH  11  12
ENDBRANCH  10  11
ENDBRANCH   9  10
ENDBRANCH   6   9
BRANCH   3  19
HETATM   19  C   UNK N   1      -3.002  -1.654  -0.014  0.00  0.00    -0.052 A 
HETATM   20  C   UNK N   1      -2.715  -2.700   0.876  0.00  0.00     0.007 A 
HETATM   21  C   UNK N   1      -3.249  -3.974   0.665  0.00  0.00     0.001 A 
HETATM   22  C   UNK N   1      -4.085  -4.210  -0.429  0.00  0.00     0.000 A 
HETATM   23  C   UNK N   1      -4.385  -3.173  -1.316  0.00  0.00     0.001 A 
HETATM   24  C   UNK N   1      -3.843  -1.902  -1.112  0.00  0.00     0.007 A 
ENDBRANCH   3  19
BRANCH   1  25
HETATM   25  C   UNK N   1      -3.285   2.816   0.482  0.00  0.00     0.264 C 
HETATM   26  O   UNK N   1      -4.284   2.221   0.868  0.00  0.00    -0.265 OA
BRANCH  25  27
HETATM   27  O   UNK N   1      -3.049   4.089   0.883  0.00  0.00    -0.326 OA
HETATM   28  C   UNK N   1      -3.894   4.757   1.739  0.00  0.00     0.213 C 
ENDBRANCH  25  27
ENDBRANCH   1  25
TORSDOF 7
