REMARK  5 active torsions:
REMARK  status: ('A' for Active; 'I' for Inactive)
REMARK    1  A    between atoms: C_2  and  O_3 
REMARK    2  A    between atoms: O_3  and  C_4 
REMARK    3  A    between atoms: C_7  and  N_8 
REMARK       I    between atoms: N_8  and  C_9 
REMARK       I    between atoms: C_9  and  N_11 
REMARK    4  A    between atoms: C_15  and  C_16 
REMARK    5  A    between atoms: C_20  and  C_21 
ROOT
HETATM    1  N   UNK N   1       1.004   1.051  -0.560  0.00  0.00    -0.308 N 
HETATM    2  C   UNK N   1       0.295   0.584   0.510  0.00  0.00     0.323 C 
HETATM    3  O   UNK N   1       0.734  -0.324   1.200  0.00  0.00    -0.247 OA
HETATM    4  N   UNK N   1      -0.907   1.149   0.811  0.00  0.00    -0.322 N 
HETATM    5  C   UNK N   1      -1.372   2.330   0.142  0.00  0.00     0.128 C 
HETATM    6  C   UNK N   1      -2.272   3.005   1.170  0.00  0.00     0.022 C 
HETATM    7  C   UNK N   1      -2.091   2.197   2.461  0.00  0.00     0.035 C 
HETATM    8  C   UNK N   1      -1.659   0.820   1.993  0.00  0.00     0.158 C 
HETATM    9  H   UNK N   1       0.578   1.755  -1.100  0.00  0.00     0.170 HD
ENDROOT
BRANCH   8  10
HETATM   10  C   UNK N   1      -2.908   0.056   1.629  0.00  0.00     0.127 A 
HETATM   11  N   UNK N   1      -3.935  -0.147   2.478  0.00  0.00    -0.245 N 
HETATM   12  O   UNK N   1      -4.847  -0.763   1.787  0.00  0.00    -0.222 OA
ATOM     13  HN  UNK N   1      -3.987   0.127   3.459  1.00  0.00     0.196 HD
HETATM   14  C   UNK N   1      -4.420  -0.948   0.562  0.00  0.00     0.151 A 
HETATM   15  N   UNK N   1      -3.181  -0.440   0.405  0.00  0.00    -0.325 N 
ATOM     16  HN  UNK N   1      -2.596  -0.433  -0.431  1.00  0.00     0.169 HD
BRANCH  14  17
HETATM   17  C   UNK N   1      -5.210  -1.620  -0.511  0.00  0.00     0.055 C 
HETATM   18  C   UNK N   1      -5.379  -0.693  -1.700  0.00  0.00     0.018 C 
HETATM   19  C   UNK N   1      -4.524  -2.897  -0.952  0.00  0.00     0.018 C 
ENDBRANCH  14  17
ENDBRANCH   8  10
BRANCH   1  20
HETATM   20  C   UNK N   1       2.298   0.623  -0.974  0.00  0.00     0.051 A 
HETATM   21  C   UNK N   1       2.819   1.110  -2.175  0.00  0.00     0.035 A 
HETATM   22  C   UNK N   1       4.087   0.712  -2.601  0.00  0.00     0.058 A 
HETATM   23  C   UNK N   1       4.832  -0.167  -1.813  0.00  0.00     0.141 A 
HETATM   24  N   UNK N   1       4.314  -0.623  -0.636  0.00  0.00    -0.345 N 
HETATM   25  C   UNK N   1       3.079  -0.252  -0.207  0.00  0.00     0.119 A 
ATOM     26  HN  UNK N   1       4.869  -1.259  -0.063  1.00  0.00     0.167 HD
BRANCH  23  27
HETATM   27  O   UNK N   1       6.060  -0.555  -2.228  0.00  0.00    -0.336 OA
BRANCH  27  28
HETATM   28  C   UNK N   1       6.874  -1.399  -1.499  0.00  0.00     0.173 C 
HETATM   29  C   UNK N   1       6.309  -2.810  -1.472  0.00  0.00     0.034 C 
ENDBRANCH  27  28
ENDBRANCH  23  27
ENDBRANCH   1  20
TORSDOF 5
