REMARK  4 active torsions:
REMARK  status: ('A' for Active; 'I' for Inactive)
REMARK    1  A    between atoms: C_2  and  C_3 
REMARK       I    between atoms: C_2  and  N_10 
REMARK    2  A    between atoms: C_13  and  S_14 
REMARK    3  A    between atoms: S_14  and  N_17 
REMARK    4  A    between atoms: N_17  and  C_18 
ROOT
HETATM    1  O   UNK N   1       1.051  -1.205  -2.231  0.00  0.00    -0.267 OA
HETATM    2  C   UNK N   1       1.340  -0.582  -1.222  0.00  0.00     0.256 C 
HETATM    3  N   UNK N   1       0.369   0.043  -0.496  0.00  0.00    -0.347 N 
HETATM    4  C   UNK N   1       0.659   0.968   0.570  0.00  0.00     0.127 C 
HETATM    5  C   UNK N   1      -0.669   1.657   0.839  0.00  0.00     0.043 C 
HETATM    6  C   UNK N   1      -1.676   0.629   0.362  0.00  0.00     0.143 C 
HETATM    7  C   UNK N   1      -1.025  -0.060  -0.818  0.00  0.00     0.147 C 
ENDROOT
BRANCH   2   8
HETATM    8  C   UNK N   1       2.759  -0.463  -0.829  0.00  0.00     0.063 A 
HETATM    9  C   UNK N   1       3.757   0.050  -1.705  0.00  0.00     0.050 A 
HETATM   10  C   UNK N   1       5.013   0.120  -1.095  0.00  0.00     0.077 A 
HETATM   11 Cl   UNK N   1       6.472   0.777  -1.801  0.00  0.00    -0.076 Cl
HETATM   12  S   UNK N   1       4.864  -0.471   0.445  0.00  0.00    -0.065 SA
HETATM   13  C   UNK N   1       3.248  -0.814   0.439  0.00  0.00     0.091 A 
HETATM   14 Cl   UNK N   1       2.363  -1.559   1.760  0.00  0.00    -0.075 Cl
ENDBRANCH   2   8
BRANCH   6  15
HETATM   15  S   UNK N   1      -3.320   1.290  -0.017  0.00  0.00     0.215 S 
HETATM   16  O   UNK N   1      -3.939   2.101   1.133  0.00  0.00    -0.211 OA
HETATM   17  O   UNK N   1      -3.378   2.274  -1.195  0.00  0.00    -0.211 OA
BRANCH  15  18
HETATM   18  N   UNK N   1      -4.534   0.055  -0.382  0.00  0.00    -0.215 NA
HETATM   19  H   UNK N   1      -4.238  -0.514  -1.176  0.00  0.00     0.140 HD
BRANCH  18  20
HETATM   20  C   UNK N   1      -4.705  -0.773   0.805  0.00  0.00     0.071 A 
HETATM   21  C   UNK N   1      -3.629  -1.844   0.863  0.00  0.00     0.022 A 
HETATM   22  C   UNK N   1      -5.016  -2.193   0.375  0.00  0.00     0.022 A 
ENDBRANCH  18  20
ENDBRANCH  15  18
ENDBRANCH   6  15
TORSDOF 4
