REMARK  5 active torsions:
REMARK  status: ('A' for Active; 'I' for Inactive)
REMARK    1  A    between atoms: C_2  and  C_3 
REMARK    2  A    between atoms: C_2  and  N_20 
REMARK       I    between atoms: C_3  and  N_5 
REMARK    3  A    between atoms: C_12  and  C_13 
REMARK    4  A    between atoms: C_24  and  C_26 
REMARK    5  A    between atoms: C_26  and  O_27 
ROOT
HETATM    1  C   UNK N   1       0.506   1.207   0.107  0.00  0.00     0.258 C 
HETATM    2  O   UNK N   1       0.010   2.280  -0.204  0.00  0.00    -0.271 OA
HETATM    3  N   UNK N   1      -0.290   0.067   0.152  0.00  0.00    -0.305 N 
HETATM    4  C   UNK N   1       0.321  -1.217   0.475  0.00  0.00     0.235 C 
HETATM    5  C   UNK N   1      -0.562  -2.426   0.346  0.00  0.00     0.240 C 
HETATM    6  O   UNK N   1      -0.074  -3.535   0.485  0.00  0.00    -0.271 OA
HETATM    7  N   UNK N   1      -1.879  -2.310   0.087  0.00  0.00    -0.324 N 
HETATM    8  C   UNK N   1      -2.493  -1.054  -0.089  0.00  0.00     0.062 A 
HETATM    9  C   UNK N   1      -3.879  -1.000  -0.265  0.00  0.00     0.048 A 
HETATM   10  C   UNK N   1      -4.531   0.227  -0.430  0.00  0.00     0.050 A 
HETATM   11  C   UNK N   1      -3.781   1.404  -0.430  0.00  0.00     0.018 A 
HETATM   12  C   UNK N   1      -2.398   1.353  -0.257  0.00  0.00     0.033 A 
HETATM   13  C   UNK N   1      -1.723   0.128  -0.079  0.00  0.00     0.064 A 
HETATM   14  H   UNK N   1      -2.428  -3.125   0.019  0.00  0.00     0.169 HD
ENDROOT
BRANCH   1  15
HETATM   15  C   UNK N   1       2.002   1.260   0.454  0.00  0.00     0.310 C 
HETATM   16  C   UNK N   1       2.141   2.186   1.667  0.00  0.00     0.053 C 
BRANCH  15  17
HETATM   17  N   UNK N   1       2.725  -0.018   0.622  0.00  0.00     0.102 N 
HETATM   18  C   UNK N   1       2.916  -0.608  -0.719  0.00  0.00     0.273 C 
HETATM   19  C   UNK N   1       3.997  -1.689  -0.724  0.00  0.00     0.031 C 
HETATM   20  C   UNK N   1       5.355  -1.129  -0.276  0.00  0.00     0.015 C 
HETATM   21  C   UNK N   1       5.250   0.217   0.450  0.00  0.00     0.004 C 
HETATM   22  C   UNK N   1       6.475   0.409   1.323  0.00  0.00     0.019 C 
HETATM   23  C   UNK N   1       4.008   0.184   1.347  0.00  0.00     0.284 C 
BRANCH  21  24
HETATM   24  C   UNK N   1       5.152   1.385  -0.537  0.00  0.00     0.175 C 
BRANCH  24  25
HETATM   25  O   UNK N   1       6.253   1.416  -1.396  0.00  0.00    -0.400 OA
HETATM   26  H   UNK N   1       7.064   1.542  -0.879  0.00  0.00     0.209 HD
ENDBRANCH  24  25
ENDBRANCH  21  24
ENDBRANCH  15  17
ENDBRANCH   1  15
BRANCH  10  27
HETATM   27  C   UNK N   1      -6.022   0.295  -0.593  0.00  0.00     0.417 C 
HETATM   28  F   UNK N   1      -6.562   1.060   0.425  0.00  0.00    -0.166 F 
HETATM   29  F   UNK N   1      -6.587  -0.968  -0.546  0.00  0.00    -0.166 F 
HETATM   30  F   UNK N   1      -6.329   0.877  -1.808  0.00  0.00    -0.166 F 
ENDBRANCH  10  27
TORSDOF 5
