REMARK  6 active torsions:
REMARK  status: ('A' for Active; 'I' for Inactive)
REMARK    1  A    between atoms: C_2  and  C_3 
REMARK       I    between atoms: C_2  and  N_15 
REMARK    2  A    between atoms: C_7  and  C_8 
REMARK    3  A    between atoms: C_8  and  N_9 
REMARK    4  A    between atoms: C_18  and  S_19 
REMARK    5  A    between atoms: S_19  and  N_22 
REMARK    6  A    between atoms: N_22  and  C_23 
ROOT
HETATM    1  O   UNK N   1      -0.241  -0.669   2.024  0.00  0.00    -0.267 OA
HETATM    2  C   UNK N   1      -0.175  -0.514   0.813  0.00  0.00     0.253 C 
HETATM    3  N   UNK N   1       1.010  -0.105   0.256  0.00  0.00    -0.347 N 
HETATM    4  C   UNK N   1       1.173   0.234  -1.128  0.00  0.00     0.127 C 
HETATM    5  C   UNK N   1       2.436   1.067  -1.169  0.00  0.00     0.043 C 
HETATM    6  C   UNK N   1       3.215   0.671   0.075  0.00  0.00     0.143 C 
HETATM    7  C   UNK N   1       2.174   0.153   1.059  0.00  0.00     0.147 C 
ENDROOT
BRANCH   2   8
HETATM    8  C   UNK N   1      -1.417  -0.736   0.003  0.00  0.00     0.032 A 
HETATM    9  C   UNK N   1      -1.394  -0.797  -1.400  0.00  0.00     0.017 A 
HETATM   10  C   UNK N   1      -2.567  -0.987  -2.131  0.00  0.00     0.002 A 
HETATM   11  C   UNK N   1      -3.788  -1.096  -1.468  0.00  0.00     0.009 A 
HETATM   12  C   UNK N   1      -3.834  -1.030  -0.073  0.00  0.00    -0.029 A 
HETATM   13  C   UNK N   1      -2.652  -0.866   0.660  0.00  0.00     0.026 A 
BRANCH  12  14
HETATM   14  C   UNK N   1      -5.159  -1.087   0.635  0.00  0.00     0.311 C 
BRANCH  14  15
HETATM   15  N   UNK N   1      -5.798   0.229   0.802  0.00  0.00     0.092 N 
HETATM   16  C   UNK N   1      -4.968   1.117   1.614  0.00  0.00     0.273 C 
HETATM   17  C   UNK N   1      -4.503   2.254   0.731  0.00  0.00     0.032 C 
HETATM   18  C   UNK N   1      -5.514   2.301  -0.381  0.00  0.00     0.032 C 
HETATM   19  C   UNK N   1      -6.019   0.879  -0.489  0.00  0.00     0.273 C 
ENDBRANCH  14  15
ENDBRANCH  12  14
ENDBRANCH   2   8
BRANCH   6  20
HETATM   20  S   UNK N   1       4.396  -0.643  -0.368  0.00  0.00     0.215 S 
HETATM   21  O   UNK N   1       5.055  -0.419  -1.739  0.00  0.00    -0.211 OA
HETATM   22  O   UNK N   1       3.741  -2.019  -0.563  0.00  0.00    -0.211 OA
BRANCH  20  23
HETATM   23  N   UNK N   1       5.754  -0.932   0.748  0.00  0.00    -0.215 NA
HETATM   24  H   UNK N   1       6.271  -1.754   0.436  0.00  0.00     0.140 HD
BRANCH  23  25
HETATM   25  C   UNK N   1       6.698   0.187   0.938  0.00  0.00     0.071 A 
HETATM   26  C   UNK N   1       5.994   1.339   1.635  0.00  0.00     0.022 A 
HETATM   27  C   UNK N   1       6.382   1.468   0.177  0.00  0.00     0.022 A 
ENDBRANCH  23  25
ENDBRANCH  20  23
ENDBRANCH   6  20
TORSDOF 6
