REMARK  3 active torsions:
REMARK  status: ('A' for Active; 'I' for Inactive)
REMARK    1  A    between atoms: C_3  and  C_2 
REMARK       I    between atoms: N_11  and  C_12 
REMARK    2  A    between atoms: C_12  and  C_14 
REMARK    3  A    between atoms: C_18  and  N_19 
ROOT
HETATM    1  C   UNK N   1      -2.932   0.804  -0.653  0.00  0.00     0.137 C 
HETATM    2  C   UNK N   1      -3.971   0.360   0.330  0.00  0.00     0.034 A 
HETATM    3  C   UNK N   1      -5.013   1.104   0.839  0.00  0.00     0.028 A 
HETATM    4  C   UNK N   1      -5.694   0.254   1.704  0.00  0.00     0.019 A 
HETATM    5  C   UNK N   1      -5.033  -0.968   1.676  0.00  0.00     0.091 A 
HETATM    6  N   UNK N   1      -3.992  -0.881   0.834  0.00  0.00    -0.357 N 
HETATM    7  C   UNK N   1      -3.041  -1.947   0.514  0.00  0.00     0.148 C 
HETATM    8  C   UNK N   1      -2.071  -1.527  -0.606  0.00  0.00     0.147 C 
HETATM    9  N   UNK N   1      -1.798  -0.100  -0.537  0.00  0.00    -0.336 N 
HETATM   10  C   UNK N   1      -0.534   0.413  -0.354  0.00  0.00     0.254 C 
HETATM   11  O   UNK N   1      -0.394   1.629  -0.310  0.00  0.00    -0.267 OA
ENDROOT
BRANCH  10  12
HETATM   12  C   UNK N   1       0.701  -0.432  -0.215  0.00  0.00     0.034 A 
HETATM   13  C   UNK N   1       0.659  -1.831  -0.125  0.00  0.00     0.017 A 
HETATM   14  C   UNK N   1       1.831  -2.574   0.029  0.00  0.00     0.003 A 
HETATM   15  C   UNK N   1       3.066  -1.927   0.091  0.00  0.00     0.030 A 
HETATM   16  C   UNK N   1       3.143  -0.532  -0.016  0.00  0.00     0.040 A 
HETATM   17  C   UNK N   1       1.955   0.204  -0.164  0.00  0.00     0.047 A 
BRANCH  16  18
HETATM   18  N   UNK N   1       4.420   0.117   0.035  0.00  0.00    -0.292 N 
HETATM   19  C   UNK N   1       5.644  -0.553   0.375  0.00  0.00     0.161 A 
HETATM   20  C   UNK N   1       6.688   0.597   0.291  0.00  0.00     0.201 A 
HETATM   21  O   UNK N   1       5.963   1.712  -0.092  0.00  0.00    -0.302 OA
HETATM   22  C   UNK N   1       4.674   1.403  -0.226  0.00  0.00     0.367 A 
HETATM   23  O   UNK N   1       3.831   2.212  -0.576  0.00  0.00    -0.238 OA
ENDBRANCH  16  18
ENDBRANCH  10  12
BRANCH   1  24
HETATM   24  C   UNK N   1      -3.488   0.749  -2.078  0.00  0.00     0.027 C 
HETATM   25  C   UNK N   1      -4.632   1.725  -2.288  0.00  0.00     0.007 C 
ENDBRANCH   1  24
TORSDOF 3
