REMARK  5 active torsions:
REMARK  status: ('A' for Active; 'I' for Inactive)
REMARK    1  A    between atoms: C_4  and  C_5 
REMARK       I    between atoms: C_5  and  N_7 
REMARK    2  A    between atoms: N_7  and  C_8 
REMARK    3  A    between atoms: C_9  and  C_8 
REMARK    4  A    between atoms: C_22  and  S_23 
REMARK    5  A    between atoms: S_23  and  N_24 
ROOT
HETATM    1  C   UNK N   1       1.337  -0.900  -0.667  0.00  0.00     0.275 C 
HETATM    2  O   UNK N   1       1.125  -1.888   0.020  0.00  0.00    -0.265 OA
HETATM    3  N   UNK N   1       0.399  -0.449  -1.535  0.00  0.00    -0.355 N 
HETATM    4  H   UNK N   1       0.610   0.327  -2.101  0.00  0.00     0.162 HD
ENDROOT
BRANCH   3   5
HETATM    5  C   UNK N   1      -0.900  -1.069  -1.657  0.00  0.00     0.128 C 
BRANCH   5   6
HETATM    6  C   UNK N   1      -1.740  -0.847  -0.394  0.00  0.00     0.017 A 
HETATM    7  C   UNK N   1      -1.742   0.639  -0.051  0.00  0.00     0.022 A 
HETATM    8  C   UNK N   1      -2.979   0.011  -0.650  0.00  0.00    -0.007 A 
HETATM    9  C   UNK N   1      -3.290   0.490  -2.080  0.00  0.00     0.015 C 
HETATM   10  C   UNK N   1      -4.136  -0.137   0.298  0.00  0.00    -0.043 A 
HETATM   11  C   UNK N   1      -4.749   0.219  -2.505  0.00  0.00     0.006 C 
HETATM   12  C   UNK N   1      -5.417  -0.905  -1.702  0.00  0.00     0.039 C 
HETATM   13  C   UNK N   1      -5.350  -0.580  -0.240  0.00  0.00    -0.051 A 
HETATM   14  C   UNK N   1      -6.484  -0.681   0.571  0.00  0.00     0.007 A 
HETATM   15  C   UNK N   1      -6.400  -0.352   1.928  0.00  0.00     0.001 A 
HETATM   16  C   UNK N   1      -5.187   0.085   2.472  0.00  0.00     0.001 A 
HETATM   17  C   UNK N   1      -4.057   0.200   1.659  0.00  0.00     0.008 A 
ENDBRANCH   5   6
ENDBRANCH   3   5
BRANCH   1  18
HETATM   18  C   UNK N   1       2.611  -0.188  -0.552  0.00  0.00     0.144 A 
HETATM   19  O   UNK N   1       2.916   0.897  -1.230  0.00  0.00    -0.308 OA
HETATM   20  C   UNK N   1       4.124   1.273  -0.895  0.00  0.00     0.073 A 
HETATM   21  C   UNK N   1       4.824   2.458  -1.461  0.00  0.00     0.078 C 
HETATM   22  C   UNK N   1       4.628   0.398   0.040  0.00  0.00     0.106 A 
HETATM   23  C   UNK N   1       3.661  -0.552   0.276  0.00  0.00     0.070 A 
BRANCH  22  24
HETATM   24  S   UNK N   1       6.243   0.458   0.790  0.00  0.00     0.241 S 
HETATM   25  O   UNK N   1       6.447  -0.618   1.866  0.00  0.00    -0.206 OA
HETATM   26  O   UNK N   1       6.500   1.758   1.564  0.00  0.00    -0.206 OA
BRANCH  24  27
HETATM   27  N   UNK N   1       7.616   0.281  -0.302  0.00  0.00    -0.225 NA
HETATM   28  H   UNK N   1       7.507  -0.571  -0.851  0.00  0.00     0.136 HD
HETATM   29  H   UNK N   1       8.487   0.250   0.228  0.00  0.00     0.136 HD
ENDBRANCH  24  27
ENDBRANCH  22  24
ENDBRANCH   1  18
TORSDOF 5
