REMARK  4 active torsions:
REMARK  status: ('A' for Active; 'I' for Inactive)
REMARK    1  A    between atoms: C_2  and  O_3 
REMARK    2  A    between atoms: O_3  and  C_4 
REMARK    3  A    between atoms: C_7  and  N_8 
REMARK       I    between atoms: N_8  and  C_9 
REMARK       I    between atoms: C_9  and  N_11 
REMARK    4  A    between atoms: C_15  and  C_16 
ROOT
HETATM    1  N   UNK N   1       0.963  -1.434  -0.746  0.00  0.00    -0.308 N 
HETATM    2  C   UNK N   1      -0.048  -1.160   0.127  0.00  0.00     0.323 C 
HETATM    3  O   UNK N   1       0.070  -0.261   0.953  0.00  0.00    -0.247 OA
HETATM    4  N   UNK N   1      -1.203  -1.879   0.085  0.00  0.00    -0.329 N 
HETATM    5  C   UNK N   1      -1.401  -2.914  -0.912  0.00  0.00     0.153 C 
HETATM    6  C   UNK N   1      -2.903  -3.091  -1.150  0.00  0.00     0.188 C 
HETATM    7  O   UNK N   1      -3.515  -1.820  -1.160  0.00  0.00    -0.378 OA
HETATM    8  C   UNK N   1      -3.571  -1.303   0.165  0.00  0.00     0.175 C 
HETATM    9  C   UNK N   1      -2.295  -1.581   0.986  0.00  0.00     0.164 C 
HETATM   10  H   UNK N   1       0.808  -2.156  -1.398  0.00  0.00     0.170 HD
ENDROOT
BRANCH   1  11
HETATM   11  C   UNK N   1       2.223  -0.770  -0.799  0.00  0.00     0.051 A 
HETATM   12  C   UNK N   1       3.162  -1.154  -1.760  0.00  0.00     0.035 A 
HETATM   13  C   UNK N   1       4.406  -0.519  -1.816  0.00  0.00     0.058 A 
HETATM   14  C   UNK N   1       4.703   0.493  -0.898  0.00  0.00     0.141 A 
HETATM   15  N   UNK N   1       3.776   0.852   0.033  0.00  0.00    -0.345 N 
HETATM   16  C   UNK N   1       2.560   0.254   0.097  0.00  0.00     0.119 A 
ATOM     17  HN  UNK N   1       4.002   1.591   0.699  1.00  0.00     0.167 HD
BRANCH  14  18
HETATM   18  O   UNK N   1       5.915   1.098  -0.937  0.00  0.00    -0.336 OA
BRANCH  18  19
HETATM   19  C   UNK N   1       6.360   1.970   0.039  0.00  0.00     0.173 C 
HETATM   20  C   UNK N   1       5.527   3.242   0.083  0.00  0.00     0.034 C 
ENDBRANCH  18  19
ENDBRANCH  14  18
ENDBRANCH   1  11
BRANCH   8  21
HETATM   21  C   UNK N   1      -3.754   0.177   0.094  0.00  0.00     0.006 A 
HETATM   22  C   UNK N   1      -2.896   1.089  -0.494  0.00  0.00     0.118 A 
HETATM   23  N   UNK N   1      -3.415   2.318  -0.311  0.00  0.00    -0.310 N 
HETATM   24  N   UNK N   1      -4.548   2.195   0.360  0.00  0.00    -0.308 N 
ATOM     25  HN  UNK N   1      -3.005   3.194  -0.636  1.00  0.00     0.186 HD
HETATM   26  C   UNK N   1      -5.381   3.316   0.751  0.00  0.00     0.177 C 
HETATM   27  C   UNK N   1      -4.796   0.902   0.630  0.00  0.00     0.120 A 
ENDBRANCH   8  21
TORSDOF 4
