REMARK  4 active torsions:
REMARK  status: ('A' for Active; 'I' for Inactive)
REMARK    1  A    between atoms: O_2  and  C_3 
REMARK    2  A    between atoms: C_3  and  C_4 
REMARK    3  A    between atoms: C_3  and  C_18 
REMARK    4  A    between atoms: C_4  and  N_5 
REMARK       I    between atoms: N_5  and  C_6 
REMARK       I    between atoms: C_6  and  N_8 
ROOT
HETATM    1  N   UNK N   1       0.024   0.330   0.168  0.00  0.00    -0.340 N 
HETATM    2  C   UNK N   1       0.877  -0.682  -0.109  0.00  0.00     0.318 C 
HETATM    3  O   UNK N   1       0.631  -1.461  -1.025  0.00  0.00    -0.247 OA
HETATM    4  N   UNK N   1       2.021  -0.821   0.613  0.00  0.00    -0.334 N 
HETATM    5  C   UNK N   1       2.339   0.100   1.685  0.00  0.00     0.130 C 
HETATM    6  C   UNK N   1       3.614   0.860   1.335  0.00  0.00     0.052 C 
HETATM    7  C   UNK N   1       4.730  -0.110   0.896  0.00  0.00     0.128 C 
HETATM    8  O   UNK N   1       5.897   0.574   0.477  0.00  0.00    -0.385 OA
HETATM    9  C   UNK N   1       5.604   1.329  -0.682  0.00  0.00     0.168 C 
HETATM   10  C   UNK N   1       5.278   0.412  -1.860  0.00  0.00     0.027 C 
HETATM   11  C   UNK N   1       4.056  -0.424  -1.509  0.00  0.00     0.011 C 
HETATM   12  C   UNK N   1       4.279  -1.132  -0.173  0.00  0.00     0.033 C 
HETATM   13  C   UNK N   1       2.997  -1.830   0.273  0.00  0.00     0.134 C 
HETATM   14  H   UNK N   1       0.242   0.937   0.912  0.00  0.00     0.164 HD
ENDROOT
BRANCH   1  15
HETATM   15  C   UNK N   1      -1.190   0.561  -0.574  0.00  0.00     0.161 C 
BRANCH  15  16
HETATM   16  C   UNK N   1      -2.378  -0.164   0.071  0.00  0.00     0.173 C 
BRANCH  16  17
HETATM   17  O   UNK N   1      -2.308  -0.070   1.468  0.00  0.00    -0.384 OA
HETATM   18  C   UNK N   1      -1.826  -1.306   1.908  0.00  0.00     0.202 C 
ENDBRANCH  16  17
BRANCH  16  19
HETATM   19  C   UNK N   1      -3.709   0.394  -0.388  0.00  0.00    -0.006 A 
HETATM   20  C   UNK N   1      -3.764   1.614  -1.086  0.00  0.00     0.011 A 
HETATM   21  C   UNK N   1      -4.988   2.160  -1.476  0.00  0.00     0.001 A 
HETATM   22  C   UNK N   1      -6.174   1.492  -1.175  0.00  0.00     0.002 A 
HETATM   23  C   UNK N   1      -6.137   0.274  -0.493  0.00  0.00     0.024 A 
HETATM   24  C   UNK N   1      -4.915  -0.279  -0.096  0.00  0.00     0.043 A 
HETATM   25 Cl   UNK N   1      -4.933  -1.820   0.749  0.00  0.00    -0.084 Cl
ENDBRANCH  16  19
ENDBRANCH  15  16
ENDBRANCH   1  15
TORSDOF 4
