REMARK  9 active torsions:
REMARK  status: ('A' for Active; 'I' for Inactive)
REMARK    1  A    between atoms: C_2  and  C_3 
REMARK    2  A    between atoms: C_3  and  C_6 
REMARK    3  A    between atoms: C_6  and  C_7 
REMARK       I    between atoms: C_7  and  N_9 
REMARK    4  A    between atoms: N_9  and  C_10 
REMARK    5  A    between atoms: C_10  and  C_12 
REMARK    6  A    between atoms: C_12  and  C_13 
REMARK    7  A    between atoms: C_13  and  N_15 
REMARK       I    between atoms: N_15  and  C_16 
REMARK    8  A    between atoms: C_16  and  C_18 
REMARK    9  A    between atoms: C_20  and  C_21 
ROOT
HETATM    1  C   UNK N   1      -0.057  -0.536  -1.120  0.00  0.00     0.082 C 
HETATM    2  C   UNK N   1      -0.097  -0.246  -2.617  0.00  0.00     0.032 C 
ENDROOT
BRANCH   1   3
HETATM    3  C   UNK N   1       0.392   0.680  -0.301  0.00  0.00     0.049 C 
BRANCH   3   4
HETATM    4  C   UNK N   1       1.608   1.405  -0.845  0.00  0.00     0.082 C 
HETATM    5  C   UNK N   1       1.739   2.748  -0.140  0.00  0.00     0.032 C 
BRANCH   4   6
HETATM    6  N   UNK N   1       2.777   0.542  -0.771  0.00  0.00    -0.357 N 
HETATM    7  C   UNK N   1       3.845   0.673   0.057  0.00  0.00     0.218 C 
HETATM    8  O   UNK N   1       3.900   1.575   0.881  0.00  0.00    -0.274 OA
HETATM    9  H   UNK N   1       2.795  -0.222  -1.392  0.00  0.00     0.162 HD
BRANCH   7  10
HETATM   10  C   UNK N   1       4.947  -0.348  -0.036  0.00  0.00     0.115 C 
BRANCH  10  11
HETATM   11  C   UNK N   1       6.120  -0.192   0.943  0.00  0.00    -0.023 C 
HETATM   12  C   UNK N   1       5.623  -0.246   2.378  0.00  0.00     0.019 C 
HETATM   13  C   UNK N   1       6.847   1.127   0.715  0.00  0.00     0.019 C 
BRANCH  11  14
HETATM   14  C   UNK N   1       7.074  -1.336   0.753  0.00  0.00    -0.028 C 
HETATM   15  C   UNK N   1       7.682  -1.569  -0.413  0.00  0.00     0.007 C 
ENDBRANCH  11  14
ENDBRANCH  10  11
ENDBRANCH   7  10
ENDBRANCH   4   6
ENDBRANCH   3   4
ENDBRANCH   1   3
BRANCH   1  16
HETATM   16  N   UNK N   1      -1.369  -0.946  -0.656  0.00  0.00    -0.351 N 
HETATM   17  C   UNK N   1      -2.437  -0.105  -0.659  0.00  0.00     0.277 C 
HETATM   18  O   UNK N   1      -2.327   1.037  -1.089  0.00  0.00    -0.265 OA
HETATM   19  H   UNK N   1      -1.490  -1.866  -0.327  0.00  0.00     0.163 HD
BRANCH  17  20
HETATM   20  C   UNK N   1      -3.722  -0.530  -0.099  0.00  0.00     0.168 A 
HETATM   21  C   UNK N   1      -4.829   0.276   0.046  0.00  0.00     0.072 A 
HETATM   22  C   UNK N   1      -5.750  -0.554   0.653  0.00  0.00     0.039 A 
HETATM   23  N   UNK N   1      -5.202  -1.770   0.845  0.00  0.00    -0.264 N 
HETATM   24  O   UNK N   1      -3.984  -1.722   0.386  0.00  0.00    -0.232 OA
ATOM     25  HN  UNK N   1      -5.656  -2.578   1.271  1.00  0.00     0.194 HD
BRANCH  22  26
HETATM   26  C   UNK N   1      -7.141  -0.184   1.079  0.00  0.00     0.029 C 
HETATM   27  C   UNK N   1      -7.460   1.277   0.800  0.00  0.00     0.016 C 
HETATM   28  C   UNK N   1      -8.155  -1.057   0.369  0.00  0.00     0.016 C 
ENDBRANCH  22  26
ENDBRANCH  17  20
ENDBRANCH   1  16
TORSDOF 9
