REMARK  3 active torsions:
REMARK  status: ('A' for Active; 'I' for Inactive)
REMARK    1  A    between atoms: C_3  and  C_2 
REMARK       I    between atoms: N_11  and  C_12 
REMARK    2  A    between atoms: C_12  and  C_14 
REMARK    3  A    between atoms: C_18  and  N_19 
ROOT
HETATM    1  C   UNK N   1      -3.003   0.064   1.373  0.00  0.00     0.137 C 
HETATM    2  C   UNK N   1      -3.916   0.779   0.449  0.00  0.00     0.034 A 
HETATM    3  C   UNK N   1      -4.468   2.033   0.568  0.00  0.00     0.028 A 
HETATM    4  C   UNK N   1      -5.159   2.247  -0.623  0.00  0.00     0.019 A 
HETATM    5  C   UNK N   1      -4.968   1.118  -1.413  0.00  0.00     0.091 A 
HETATM    6  N   UNK N   1      -4.213   0.244  -0.733  0.00  0.00    -0.357 N 
HETATM    7  C   UNK N   1      -3.686  -1.045  -1.163  0.00  0.00     0.148 C 
HETATM    8  C   UNK N   1      -2.225  -1.211  -0.668  0.00  0.00     0.147 C 
HETATM    9  N   UNK N   1      -1.907  -0.428   0.538  0.00  0.00    -0.336 N 
HETATM   10  C   UNK N   1      -0.616  -0.063   0.849  0.00  0.00     0.254 C 
HETATM   11  O   UNK N   1      -0.425   0.667   1.814  0.00  0.00    -0.267 OA
ENDROOT
BRANCH  10  12
HETATM   12  C   UNK N   1       0.589  -0.514   0.071  0.00  0.00     0.034 A 
HETATM   13  C   UNK N   1       0.508  -1.492  -0.931  0.00  0.00     0.017 A 
HETATM   14  C   UNK N   1       1.650  -1.945  -1.589  0.00  0.00     0.003 A 
HETATM   15  C   UNK N   1       2.899  -1.430  -1.250  0.00  0.00     0.030 A 
HETATM   16  C   UNK N   1       3.017  -0.435  -0.271  0.00  0.00     0.040 A 
HETATM   17  C   UNK N   1       1.856   0.015   0.388  0.00  0.00     0.047 A 
BRANCH  16  18
HETATM   18  N   UNK N   1       4.313   0.077   0.057  0.00  0.00    -0.292 N 
HETATM   19  C   UNK N   1       5.541  -0.537  -0.365  0.00  0.00     0.161 A 
HETATM   20  C   UNK N   1       6.615   0.390   0.271  0.00  0.00     0.201 A 
HETATM   21  O   UNK N   1       5.894   1.384   0.912  0.00  0.00    -0.302 OA
HETATM   22  C   UNK N   1       4.585   1.171   0.773  0.00  0.00     0.367 A 
HETATM   23  O   UNK N   1       3.739   1.923   1.226  0.00  0.00    -0.238 OA
ENDBRANCH  16  18
ENDBRANCH  10  12
BRANCH   1  24
HETATM   24  C   UNK N   1      -3.756  -1.109   2.005  0.00  0.00     0.027 C 
HETATM   25  C   UNK N   1      -2.864  -1.903   2.940  0.00  0.00     0.007 C 
ENDBRANCH   1  24
TORSDOF 3
