REMARK  9 active torsions:
REMARK  status: ('A' for Active; 'I' for Inactive)
REMARK    1  A    between atoms: C_2  and  C_4 
REMARK    2  A    between atoms: C_4  and  C_5 
REMARK    3  A    between atoms: C_5  and  C_6 
REMARK       I    between atoms: C_6  and  N_8 
REMARK    4  A    between atoms: N_8  and  C_9 
REMARK    5  A    between atoms: N_8  and  C_19 
REMARK    6  A    between atoms: C_9  and  C_10 
REMARK    7  A    between atoms: C_10  and  N_11 
REMARK       I    between atoms: N_11  and  C_12 
REMARK    8  A    between atoms: C_12  and  C_14 
REMARK    9  A    between atoms: C_15  and  C_17 
ROOT
HETATM    1  C   UNK N   1       2.410  -0.355  -0.074  0.00  0.00     0.220 C 
HETATM    2  O   UNK N   1       3.625  -0.455   0.046  0.00  0.00    -0.273 OA
HETATM    3  N   UNK N   1       1.658  -1.475  -0.293  0.00  0.00    -0.346 N 
ENDROOT
BRANCH   3   4
HETATM    4  C   UNK N   1       0.214  -1.360  -0.422  0.00  0.00     0.146 C 
BRANCH   4   5
HETATM    5  C   UNK N   1      -0.446  -1.587   0.934  0.00  0.00     0.143 C 
BRANCH   5   6
HETATM    6  N   UNK N   1      -1.883  -1.494   0.826  0.00  0.00    -0.356 N 
HETATM    7  C   UNK N   1      -2.506  -0.350   0.458  0.00  0.00     0.241 C 
HETATM    8  O   UNK N   1      -1.851   0.648   0.189  0.00  0.00    -0.269 OA
HETATM    9  H   UNK N   1      -2.427  -2.289   1.027  0.00  0.00     0.162 HD
BRANCH   7  10
HETATM   10  C   UNK N   1      -3.985  -0.327   0.390  0.00  0.00     0.076 C 
HETATM   11  C   UNK N   1      -4.735   0.730   0.035  0.00  0.00    -0.079 C 
HETATM   12  C   UNK N   1      -6.218   0.579   0.020  0.00  0.00     0.043 C 
BRANCH  11  13
HETATM   13  C   UNK N   1      -4.134   2.046  -0.361  0.00  0.00     0.029 C 
HETATM   14  C   UNK N   1      -4.520   3.128   0.629  0.00  0.00     0.010 C 
ENDBRANCH  11  13
ENDBRANCH   7  10
ENDBRANCH   5   6
ENDBRANCH   4   5
ENDBRANCH   3   4
BRANCH   3  15
HETATM   15  C   UNK N   1       2.323  -2.770  -0.419  0.00  0.00     0.087 A 
HETATM   16  C   UNK N   1       1.866  -3.709   0.684  0.00  0.00     0.027 A 
HETATM   17  C   UNK N   1       1.370  -3.918  -0.730  0.00  0.00     0.027 A 
ENDBRANCH   3  15
BRANCH   1  18
HETATM   18  C   UNK N   1       1.759   1.009   0.020  0.00  0.00     0.107 C 
BRANCH  18  19
HETATM   19  C   UNK N   1       2.691   2.154   0.431  0.00  0.00     0.042 C 
BRANCH  19  20
HETATM   20  C   UNK N   1       3.799   2.398  -0.548  0.00  0.00    -0.093 C 
HETATM   21  C   UNK N   1       5.062   2.350  -0.134  0.00  0.00     0.014 C 
HETATM   22  C   UNK N   1       3.500   2.758  -1.964  0.00  0.00     0.042 C 
ENDBRANCH  19  20
ENDBRANCH  18  19
ENDBRANCH   1  18
TORSDOF 9
