REMARK  4 active torsions:
REMARK  status: ('A' for Active; 'I' for Inactive)
REMARK    1  A    between atoms: C_2  and  C_3 
REMARK       I    between atoms: C_2  and  N_13 
REMARK    2  A    between atoms: C_16  and  S_17 
REMARK    3  A    between atoms: S_17  and  N_20 
REMARK    4  A    between atoms: N_20  and  C_21 
ROOT
HETATM    1  O   UNK N   1      -0.418   1.505   1.284  0.00  0.00    -0.267 OA
HETATM    2  C   UNK N   1      -0.679   0.607   0.494  0.00  0.00     0.253 C 
HETATM    3  N   UNK N   1       0.337  -0.206   0.058  0.00  0.00    -0.347 N 
HETATM    4  C   UNK N   1       0.164  -1.324  -0.829  0.00  0.00     0.127 C 
HETATM    5  C   UNK N   1       1.557  -1.901  -1.000  0.00  0.00     0.043 C 
HETATM    6  C   UNK N   1       2.333  -1.376   0.197  0.00  0.00     0.143 C 
HETATM    7  C   UNK N   1       1.687  -0.046   0.530  0.00  0.00     0.147 C 
ENDROOT
BRANCH   2   8
HETATM    8  C   UNK N   1      -2.111   0.432   0.080  0.00  0.00     0.034 A 
HETATM    9  C   UNK N   1      -2.513  -0.530  -0.892  0.00  0.00     0.019 A 
HETATM   10  C   UNK N   1      -3.867  -0.696  -1.243  0.00  0.00     0.034 A 
HETATM   11  C   UNK N   1      -4.790   0.111  -0.596  0.00  0.00     0.074 A 
HETATM   12  N   UNK N   1      -6.122   0.148  -0.729  0.00  0.00    -0.282 N 
HETATM   13  C   UNK N   1      -4.427   1.030   0.327  0.00  0.00     0.074 A 
HETATM   14  N   UNK N   1      -6.554   1.086   0.114  0.00  0.00    -0.022 NA
HETATM   15  H   UNK N   1      -6.672  -0.406  -1.329  0.00  0.00     0.184 HD
HETATM   16  N   UNK N   1      -5.536   1.639   0.771  0.00  0.00    -0.282 N 
ATOM     17  HN  UNK N   1      -5.589   2.379   1.471  1.00  0.00     0.184 HD
HETATM   18  C   UNK N   1      -3.104   1.234   0.698  0.00  0.00     0.050 A 
ENDBRANCH   2   8
BRANCH   6  19
HETATM   19  S   UNK N   1       4.112  -1.265  -0.169  0.00  0.00     0.215 S 
HETATM   20  O   UNK N   1       4.491  -0.438  -1.408  0.00  0.00    -0.211 OA
HETATM   21  O   UNK N   1       4.603  -2.655  -0.601  0.00  0.00    -0.211 OA
BRANCH  19  22
HETATM   22  N   UNK N   1       5.289  -0.848   1.102  0.00  0.00    -0.215 NA
HETATM   23  H   UNK N   1       6.233  -0.993   0.744  0.00  0.00     0.140 HD
BRANCH  22  24
HETATM   24  C   UNK N   1       5.186   0.512   1.653  0.00  0.00     0.071 A 
HETATM   25  C   UNK N   1       4.428   1.523   0.802  0.00  0.00     0.022 A 
HETATM   26  C   UNK N   1       5.934   1.460   0.728  0.00  0.00     0.022 A 
ENDBRANCH  22  24
ENDBRANCH  19  22
ENDBRANCH   6  19
TORSDOF 4
