REMARK  6 active torsions:
REMARK  status: ('A' for Active; 'I' for Inactive)
REMARK    1  A    between atoms: C_2  and  C_3 
REMARK       I    between atoms: C_3  and  N_5 
REMARK    2  A    between atoms: N_5  and  C_6 
REMARK    3  A    between atoms: N_5  and  C_20 
REMARK    4  A    between atoms: C_6  and  C_7 
REMARK    5  A    between atoms: C_7  and  N_8 
REMARK       I    between atoms: N_8  and  C_9 
REMARK    6  A    between atoms: C_9  and  C_11 
ROOT
HETATM    1  C   UNK N   1       0.238  -0.237  -0.594  0.00  0.00     0.146 C 
ENDROOT
BRANCH   1   2
HETATM    2  N   UNK N   1       1.622  -0.675  -0.494  0.00  0.00    -0.342 N 
HETATM    3  C   UNK N   1       2.419  -0.097   0.471  0.00  0.00     0.250 C 
HETATM    4  O   UNK N   1       1.918   0.747   1.202  0.00  0.00    -0.268 OA
BRANCH   3   5
HETATM    5  C   UNK N   1       3.893  -0.431   0.666  0.00  0.00     0.008 C 
HETATM    6  C   UNK N   1       4.546  -1.544  -0.105  0.00  0.00     0.054 C 
HETATM    7  C   UNK N   1       4.681   0.273   1.525  0.00  0.00    -0.069 C 
HETATM    8  C   UNK N   1       4.219   1.423   2.349  0.00  0.00     0.035 C 
HETATM    9  C   UNK N   1       6.131  -0.017   1.703  0.00  0.00     0.035 C 
HETATM   10  C   UNK N   1       5.494   2.022   2.908  0.00  0.00     0.005 C 
HETATM   11  C   UNK N   1       6.591   0.975   2.756  0.00  0.00     0.005 C 
ENDBRANCH   3   5
BRANCH   2  12
HETATM   12  C   UNK N   1       2.139  -1.674  -1.426  0.00  0.00     0.087 A 
HETATM   13  C   UNK N   1       2.161  -1.110  -2.836  0.00  0.00     0.027 A 
HETATM   14  C   UNK N   1       1.121  -2.143  -2.460  0.00  0.00     0.027 A 
ENDBRANCH   2  12
ENDBRANCH   1   2
BRANCH   1  15
HETATM   15  C   UNK N   1      -0.654  -1.101   0.287  0.00  0.00     0.143 C 
BRANCH  15  16
HETATM   16  N   UNK N   1      -2.022  -0.638   0.242  0.00  0.00    -0.353 N 
HETATM   17  C   UNK N   1      -2.769  -0.665  -0.892  0.00  0.00     0.285 C 
HETATM   18  O   UNK N   1      -2.291  -1.076  -1.939  0.00  0.00    -0.264 OA
HETATM   19  H   UNK N   1      -2.429  -0.288   1.067  0.00  0.00     0.162 HD
BRANCH  17  20
HETATM   20  C   UNK N   1      -4.168  -0.205  -0.861  0.00  0.00     0.174 A 
HETATM   21  N   UNK N   1      -4.912  -0.212  -2.002  0.00  0.00    -0.348 N 
HETATM   22  C   UNK N   1      -6.206   0.198  -1.994  0.00  0.00     0.092 A 
ATOM     23  HN  UNK N   1      -4.490  -0.531  -2.875  1.00  0.00     0.167 HD
HETATM   24  C   UNK N   1      -6.792   0.630  -0.807  0.00  0.00     0.041 A 
HETATM   25  C   UNK N   1      -6.019   0.631   0.353  0.00  0.00     0.008 A 
HETATM   26  C   UNK N   1      -6.612   1.079   1.640  0.00  0.00     0.068 C 
HETATM   27  N   UNK N   1      -4.726   0.217   0.307  0.00  0.00    -0.342 N 
ATOM     28  HN  UNK N   1      -4.165   0.222   1.160  1.00  0.00     0.167 HD
ENDBRANCH  17  20
ENDBRANCH  15  16
ENDBRANCH   1  15
TORSDOF 6
