REMARK  5 active torsions:
REMARK  status: ('A' for Active; 'I' for Inactive)
REMARK    1  A    between atoms: C_5  and  N_6 
REMARK    2  A    between atoms: C_9  and  C_10 
REMARK    3  A    between atoms: C_10  and  N_11 
REMARK    4  A    between atoms: N_11  and  C_12 
REMARK    5  A    between atoms: C_12  and  C_13 
ROOT
HETATM    1  N   UNK N   1      -0.555   0.431   1.616  0.00  0.00     0.088 N 
HETATM    2  H   UNK N   1      -0.732   1.396   1.339  0.00  0.00     0.316 HD
ENDROOT
BRANCH   1   3
HETATM    3  C   UNK N   1       0.331  -0.215   0.654  0.00  0.00     0.276 C 
BRANCH   3   4
HETATM    4  C   UNK N   1       0.894  -1.523   1.200  0.00  0.00     0.033 C 
HETATM    5  C   UNK N   1       1.055  -2.499   0.035  0.00  0.00     0.027 C 
HETATM    6  C   UNK N   1       2.414  -2.185  -0.568  0.00  0.00     0.123 C 
HETATM    7  N   UNK N   1       3.090  -1.446   0.460  0.00  0.00    -0.380 N 
HETATM    8  C   UNK N   1       2.319  -1.281   1.660  0.00  0.00     0.129 C 
BRANCH   7   9
HETATM    9  C   UNK N   1       4.215  -0.623   0.171  0.00  0.00     0.030 A 
HETATM   10  C   UNK N   1       4.783   0.185   1.171  0.00  0.00     0.032 A 
HETATM   11  C   UNK N   1       5.854   1.031   0.870  0.00  0.00     0.044 A 
HETATM   12  C   UNK N   1       6.360   1.083  -0.431  0.00  0.00     0.116 A 
HETATM   13  F   UNK N   1       7.386   1.916  -0.726  0.00  0.00    -0.206 F 
HETATM   14  C   UNK N   1       5.807   0.279  -1.430  0.00  0.00     0.044 A 
HETATM   15  C   UNK N   1       4.741  -0.572  -1.130  0.00  0.00     0.032 A 
ENDBRANCH   7   9
ENDBRANCH   3   4
ENDBRANCH   1   3
BRANCH   1  16
HETATM   16  C   UNK N   1      -1.817  -0.307   1.709  0.00  0.00     0.310 C 
BRANCH  16  17
HETATM   17  C   UNK N   1      -2.637  -0.202   0.451  0.00  0.00    -0.003 A 
HETATM   18  C   UNK N   1      -2.219  -0.872  -0.708  0.00  0.00     0.014 A 
HETATM   19  C   UNK N   1      -2.966  -0.796  -1.884  0.00  0.00     0.044 A 
HETATM   20  C   UNK N   1      -4.147  -0.054  -1.919  0.00  0.00     0.128 A 
HETATM   21  F   UNK N   1      -4.860   0.010  -3.071  0.00  0.00    -0.205 F 
HETATM   22  C   UNK N   1      -4.586   0.615  -0.767  0.00  0.00     0.030 A 
HETATM   23  C   UNK N   1      -5.767   1.359  -0.779  0.00  0.00     0.018 A 
HETATM   24  C   UNK N   1      -3.830   0.539   0.426  0.00  0.00     0.053 A 
HETATM   25  C   UNK N   1      -6.185   2.015   0.379  0.00  0.00     0.018 A 
HETATM   26  C   UNK N   1      -5.415   1.919   1.540  0.00  0.00     0.088 A 
HETATM   27  N   UNK N   1      -4.265   1.192   1.543  0.00  0.00    -0.365 N 
ATOM     28  HN  UNK N   1      -3.715   1.134   2.400  1.00  0.00     0.165 HD
ENDBRANCH  16  17
ENDBRANCH   1  16
TORSDOF 5
