REMARK  4 active torsions:
REMARK  status: ('A' for Active; 'I' for Inactive)
REMARK    1  A    between atoms: C_2  and  O_3 
REMARK    2  A    between atoms: C_11  and  C_2 
REMARK    3  A    between atoms: O_3  and  C_4 
REMARK       I    between atoms: N_16  and  C_17 
REMARK    4  A    between atoms: C_17  and  C_19 
ROOT
HETATM    1  C   UNK N   1      -0.676   0.429   0.892  0.00  0.00     0.187 C 
HETATM    2  C   UNK N   1      -0.786   0.851   2.360  0.00  0.00     0.036 C 
HETATM    3  C   UNK N   1       0.088  -0.040   3.247  0.00  0.00     0.004 C 
HETATM    4  C   UNK N   1      -0.284  -1.512   3.062  0.00  0.00     0.020 C 
HETATM    5  C   UNK N   1      -0.201  -1.906   1.587  0.00  0.00     0.127 C 
HETATM    6  N   UNK N   1      -1.006  -0.987   0.803  0.00  0.00    -0.334 N 
HETATM    7  C   UNK N   1      -2.088  -1.468   0.104  0.00  0.00     0.256 C 
HETATM    8  O   UNK N   1      -2.303  -2.676   0.114  0.00  0.00    -0.267 OA
ENDROOT
BRANCH   1   9
HETATM    9  C   UNK N   1       0.714   0.732   0.372  0.00  0.00     0.287 C 
HETATM   10  O   UNK N   1       1.147   1.873   0.463  0.00  0.00    -0.262 OA
BRANCH   9  11
HETATM   11  O   UNK N   1       1.472  -0.237  -0.207  0.00  0.00    -0.276 OA
BRANCH  11  12
HETATM   12  C   UNK N   1       2.826  -0.182  -0.254  0.00  0.00     0.101 A 
HETATM   13  C   UNK N   1       3.570  -0.058   0.931  0.00  0.00     0.039 A 
HETATM   14  C   UNK N   1       4.967  -0.016   0.885  0.00  0.00     0.003 A 
HETATM   15  C   UNK N   1       5.627  -0.084  -0.345  0.00  0.00     0.002 A 
HETATM   16  C   UNK N   1       4.892  -0.199  -1.528  0.00  0.00     0.026 A 
HETATM   17  C   UNK N   1       3.494  -0.256  -1.486  0.00  0.00     0.068 A 
HETATM   18 Cl   UNK N   1       2.592  -0.374  -2.985  0.00  0.00    -0.081 Cl
ENDBRANCH  11  12
ENDBRANCH   9  11
ENDBRANCH   1   9
BRANCH   7  19
HETATM   19  C   UNK N   1      -3.057  -0.604  -0.646  0.00  0.00     0.047 A 
HETATM   20  C   UNK N   1      -4.160  -1.206  -1.271  0.00  0.00     0.020 A 
HETATM   21  C   UNK N   1      -5.099  -0.434  -1.953  0.00  0.00     0.018 A 
HETATM   22  C   UNK N   1      -4.932   0.948  -2.009  0.00  0.00     0.087 A 
HETATM   23  N   UNK N   1      -3.861   1.529  -1.404  0.00  0.00    -0.374 N 
HETATM   24  C   UNK N   1      -2.936   0.791  -0.733  0.00  0.00     0.104 A 
ATOM     25  HN  UNK N   1      -3.749   2.542  -1.455  1.00  0.00     0.164 HD
ENDBRANCH   7  19
TORSDOF 4
