REMARK  4 active torsions:
REMARK  status: ('A' for Active; 'I' for Inactive)
REMARK    1  A    between atoms: C_3  and  C_2 
REMARK       I    between atoms: N_11  and  C_12 
REMARK    2  A    between atoms: C_12  and  C_14 
REMARK    3  A    between atoms: C_14  and  N_15 
REMARK    4  A    between atoms: C_19  and  C_21 
ROOT
HETATM    1  N   UNK N   1       0.844   0.111   0.720  0.00  0.00    -0.259 N 
HETATM    2  C   UNK N   1       1.183  -0.946   1.461  0.00  0.00     0.326 A 
HETATM    3  O   UNK N   1       0.501  -1.388   2.372  0.00  0.00    -0.247 OA
HETATM    4  N   UNK N   1       2.339  -1.513   1.060  0.00  0.00    -0.321 N 
HETATM    5  C   UNK N   1       2.849  -0.791  -0.101  0.00  0.00     0.140 A 
HETATM    6  C   UNK N   1       2.736  -1.688  -1.332  0.00  0.00     0.054 C 
HETATM    7  C   UNK N   1       1.797   0.292  -0.205  0.00  0.00     0.261 A 
HETATM    8  O   UNK N   1       1.760   1.171  -1.053  0.00  0.00    -0.270 OA
HETATM    9  H   UNK N   1       2.771  -2.290   1.484  0.00  0.00     0.165 HD
ENDROOT
BRANCH   1  10
HETATM   10  C   UNK N   1      -0.409   0.834   0.806  0.00  0.00     0.239 C 
BRANCH  10  11
HETATM   11  C   UNK N   1      -1.410   0.216  -0.156  0.00  0.00     0.239 C 
HETATM   12  N   UNK N   1      -2.735   0.562  -0.128  0.00  0.00    -0.339 N 
HETATM   13  C   UNK N   1      -3.168   1.628   0.771  0.00  0.00     0.147 C 
HETATM   14  C   UNK N   1      -3.694  -0.083  -1.050  0.00  0.00     0.137 C 
HETATM   15  C   UNK N   1      -4.492   1.296   1.443  0.00  0.00     0.148 C 
HETATM   16  N   UNK N   1      -5.444   0.917   0.415  0.00  0.00    -0.357 N 
HETATM   17  C   UNK N   1      -6.776   1.071   0.440  0.00  0.00     0.091 A 
HETATM   18  C   UNK N   1      -5.114   0.295  -0.720  0.00  0.00     0.034 A 
HETATM   19  C   UNK N   1      -7.311   0.530  -0.721  0.00  0.00     0.019 A 
HETATM   20  C   UNK N   1      -6.247   0.028  -1.462  0.00  0.00     0.028 A 
HETATM   21  O   UNK N   1      -1.018  -0.628  -0.954  0.00  0.00    -0.271 OA
BRANCH  14  22
HETATM   22  C   UNK N   1      -3.596  -1.613  -0.952  0.00  0.00     0.027 C 
HETATM   23  C   UNK N   1      -4.274  -2.303  -2.123  0.00  0.00     0.007 C 
ENDBRANCH  14  22
ENDBRANCH  10  11
ENDBRANCH   1  10
BRANCH   5  24
HETATM   24  C   UNK N   1       4.263  -0.286   0.121  0.00  0.00    -0.021 A 
HETATM   25  C   UNK N   1       5.295  -0.658  -0.760  0.00  0.00     0.013 A 
HETATM   26  C   UNK N   1       6.601  -0.216  -0.559  0.00  0.00     0.043 A 
HETATM   27  C   UNK N   1       6.898   0.605   0.529  0.00  0.00     0.116 A 
HETATM   28  F   UNK N   1       8.169   1.032   0.722  0.00  0.00    -0.206 F 
HETATM   29  C   UNK N   1       5.884   0.984   1.416  0.00  0.00     0.043 A 
HETATM   30  C   UNK N   1       4.570   0.540   1.215  0.00  0.00     0.013 A 
ENDBRANCH   5  24
TORSDOF 4
