REMARK  5 active torsions:
REMARK  status: ('A' for Active; 'I' for Inactive)
REMARK    1  A    between atoms: C_2  and  C_3 
REMARK    2  A    between atoms: C_3  and  C_6 
REMARK       I    between atoms: C_6  and  N_8 
REMARK    3  A    between atoms: C_10  and  C_11 
REMARK    4  A    between atoms: C_11  and  O_13 
REMARK    5  A    between atoms: C_16  and  C_17 
ROOT
HETATM    1  C   UNK N   1       1.842  -1.755  -0.232  0.00  0.00     0.227 C 
HETATM    2  O   UNK N   1       1.505  -2.933  -0.158  0.00  0.00    -0.273 OA
HETATM    3  N   UNK N   1       0.872  -0.790  -0.312  0.00  0.00    -0.350 N 
HETATM    4  C   UNK N   1       1.214   0.626  -0.425  0.00  0.00     0.140 C 
HETATM    5  C   UNK N   1       0.054   1.422  -1.032  0.00  0.00     0.104 C 
HETATM    6  C   UNK N   1      -1.259   1.223  -0.261  0.00  0.00     0.027 C 
HETATM    7  C   UNK N   1      -1.327  -0.121   0.473  0.00  0.00     0.037 C 
HETATM    8  C   UNK N   1      -0.526  -1.182  -0.272  0.00  0.00     0.135 C 
ENDROOT
BRANCH   1   9
HETATM    9  C   UNK N   1       3.328  -1.413  -0.226  0.00  0.00     0.033 C 
HETATM   10  C   UNK N   1       3.695  -0.663  -1.501  0.00  0.00     0.025 C 
HETATM   11  C   UNK N   1       4.176  -2.683  -0.182  0.00  0.00     0.025 C 
BRANCH   9  12
HETATM   12  C   UNK N   1       3.629  -0.566   1.017  0.00  0.00     0.014 C 
HETATM   13  C   UNK N   1       5.092  -0.167   1.145  0.00  0.00     0.006 C 
ENDBRANCH   9  12
ENDBRANCH   1   9
BRANCH   5  14
HETATM   14  C   UNK N   1       0.368   2.877  -1.107  0.00  0.00     0.264 C 
HETATM   15  O   UNK N   1       0.467   3.416  -2.200  0.00  0.00    -0.265 OA
BRANCH  14  16
HETATM   16  O   UNK N   1       0.508   3.591   0.037  0.00  0.00    -0.326 OA
HETATM   17  C   UNK N   1       0.717   4.950   0.037  0.00  0.00     0.213 C 
ENDBRANCH  14  16
ENDBRANCH   5  14
BRANCH   7  18
HETATM   18  C   UNK N   1      -2.739  -0.551   0.670  0.00  0.00    -0.052 A 
HETATM   19  C   UNK N   1      -3.231  -0.726   1.967  0.00  0.00     0.007 A 
HETATM   20  C   UNK N   1      -4.549  -1.148   2.164  0.00  0.00     0.001 A 
HETATM   21  C   UNK N   1      -5.376  -1.395   1.064  0.00  0.00     0.000 A 
HETATM   22  C   UNK N   1      -4.888  -1.217  -0.234  0.00  0.00     0.001 A 
HETATM   23  C   UNK N   1      -3.572  -0.797  -0.432  0.00  0.00     0.007 A 
ENDBRANCH   7  18
TORSDOF 5
