REMARK  2 active torsions:
REMARK  status: ('A' for Active; 'I' for Inactive)
REMARK    1  A    between atoms: C_2  and  C_4 
REMARK    2  A    between atoms: C_7  and  N_8 
REMARK       I    between atoms: N_8  and  C_9 
REMARK       I    between atoms: C_9  and  N_11 
ROOT
HETATM    1  N   UNK N   1      -0.709  -0.893  -0.022  0.00  0.00    -0.338 N 
HETATM    2  C   UNK N   1       0.366  -1.724  -0.042  0.00  0.00     0.318 C 
HETATM    3  O   UNK N   1       0.224  -2.908   0.249  0.00  0.00    -0.247 OA
HETATM    4  N   UNK N   1       1.595  -1.264  -0.410  0.00  0.00    -0.334 N 
HETATM    5  C   UNK N   1       2.732  -2.161  -0.481  0.00  0.00     0.130 C 
HETATM    6  C   UNK N   1       3.881  -1.614   0.363  0.00  0.00     0.052 C 
HETATM    7  C   UNK N   1       4.188  -0.177  -0.055  0.00  0.00     0.128 C 
HETATM    8  O   UNK N   1       5.225   0.335   0.747  0.00  0.00    -0.385 OA
HETATM    9  C   UNK N   1       5.612   1.560   0.174  0.00  0.00     0.168 C 
HETATM   10  C   UNK N   1       4.513   2.600   0.400  0.00  0.00     0.027 C 
HETATM   11  C   UNK N   1       3.242   2.124  -0.299  0.00  0.00     0.011 C 
HETATM   12  C   UNK N   1       2.924   0.690   0.111  0.00  0.00     0.033 C 
HETATM   13  C   UNK N   1       1.799   0.129  -0.753  0.00  0.00     0.134 C 
HETATM   14  H   UNK N   1      -0.588   0.061  -0.231  0.00  0.00     0.164 HD
ENDROOT
BRANCH   1  15
HETATM   15  C   UNK N   1      -2.026  -1.389   0.302  0.00  0.00     0.086 C 
HETATM   16  C   UNK N   1      -2.613  -0.702   1.542  0.00  0.00     0.026 C 
HETATM   17  C   UNK N   1      -3.313   0.634   1.258  0.00  0.00     0.007 C 
HETATM   18  C   UNK N   1      -4.023   0.718  -0.107  0.00  0.00    -0.011 C 
HETATM   19  C   UNK N   1      -4.263  -0.670  -0.696  0.00  0.00     0.007 C 
HETATM   20  C   UNK N   1      -2.924  -1.352  -0.941  0.00  0.00     0.026 C 
BRANCH  18  21
HETATM   21  C   UNK N   1      -5.351   1.482  -0.027  0.00  0.00    -0.019 C 
HETATM   22  C   UNK N   1      -5.856   1.789  -1.427  0.00  0.00     0.010 C 
HETATM   23  C   UNK N   1      -5.224   2.793   0.729  0.00  0.00     0.010 C 
ENDBRANCH  18  21
ENDBRANCH   1  15
TORSDOF 2
