REMARK  2 active torsions:
REMARK  status: ('A' for Active; 'I' for Inactive)
REMARK    1  A    between atoms: C_2  and  C_4 
REMARK    2  A    between atoms: C_7  and  N_8 
REMARK       I    between atoms: N_8  and  C_9 
REMARK       I    between atoms: C_9  and  N_11 
ROOT
HETATM    1  N   UNK N   1      -0.785  -0.518   0.218  0.00  0.00    -0.338 N 
HETATM    2  C   UNK N   1       0.163  -0.005  -0.610  0.00  0.00     0.318 C 
HETATM    3  O   UNK N   1      -0.161   0.439  -1.703  0.00  0.00    -0.247 OA
HETATM    4  N   UNK N   1       1.464   0.060  -0.203  0.00  0.00    -0.334 N 
HETATM    5  C   UNK N   1       1.817  -0.326   1.158  0.00  0.00     0.130 C 
HETATM    6  C   UNK N   1       3.277  -0.762   1.299  0.00  0.00     0.052 C 
HETATM    7  C   UNK N   1       4.202   0.224   0.603  0.00  0.00     0.128 C 
HETATM    8  O   UNK N   1       5.537  -0.184   0.776  0.00  0.00    -0.385 OA
HETATM    9  C   UNK N   1       6.346   0.839   0.249  0.00  0.00     0.168 C 
HETATM   10  C   UNK N   1       6.241   0.830  -1.275  0.00  0.00     0.027 C 
HETATM   11  C   UNK N   1       4.794   1.125  -1.655  0.00  0.00     0.011 C 
HETATM   12  C   UNK N   1       3.837   0.217  -0.885  0.00  0.00     0.033 C 
HETATM   13  C   UNK N   1       2.426   0.759  -1.043  0.00  0.00     0.134 C 
HETATM   14  H   UNK N   1      -0.510  -0.918   1.074  0.00  0.00     0.164 HD
ENDROOT
BRANCH   1  15
HETATM   15  C   UNK N   1      -2.185  -0.489  -0.126  0.00  0.00     0.086 C 
HETATM   16  C   UNK N   1      -2.906   0.461   0.840  0.00  0.00     0.026 C 
HETATM   17  C   UNK N   1      -4.170  -0.136   1.458  0.00  0.00     0.007 C 
HETATM   18  C   UNK N   1      -5.048  -0.843   0.412  0.00  0.00    -0.011 C 
HETATM   19  C   UNK N   1      -4.265  -1.833  -0.473  0.00  0.00     0.007 C 
HETATM   20  C   UNK N   1      -2.773  -1.900  -0.130  0.00  0.00     0.026 C 
BRANCH  18  21
HETATM   21  C   UNK N   1      -5.908   0.110  -0.430  0.00  0.00    -0.019 C 
HETATM   22  C   UNK N   1      -6.811   0.960   0.448  0.00  0.00     0.010 C 
HETATM   23  C   UNK N   1      -5.089   1.009  -1.344  0.00  0.00     0.010 C 
ENDBRANCH  18  21
ENDBRANCH   1  15
TORSDOF 2
