REMARK  6 active torsions:
REMARK  status: ('A' for Active; 'I' for Inactive)
REMARK    1  A    between atoms: C_4  and  C_5 
REMARK    2  A    between atoms: C_5  and  N_6 
REMARK    3  A    between atoms: N_6  and  C_7 
REMARK    4  A    between atoms: N_10  and  C_11 
REMARK    5  A    between atoms: C_11  and  C_12 
REMARK    6  A    between atoms: C_20  and  C_21 
ROOT
HETATM    1  C   UNK N   1      -1.156  -0.638   0.731  0.00  0.00     0.163 C 
ENDROOT
BRANCH   1   2
HETATM    2  C   UNK N   1      -2.487  -1.226   0.373  0.00  0.00     0.005 A 
HETATM    3  C   UNK N   1      -2.836  -2.564   0.426  0.00  0.00     0.120 A 
HETATM    4  N   UNK N   1      -4.103  -2.665  -0.013  0.00  0.00    -0.307 N 
HETATM    5  C   UNK N   1      -4.863  -3.896  -0.116  0.00  0.00     0.177 C 
HETATM    6  N   UNK N   1      -4.575  -1.476  -0.348  0.00  0.00    -0.298 N 
HETATM    7  C   UNK N   1      -3.608  -0.566  -0.119  0.00  0.00     0.069 A 
ATOM      8  HN  UNK N   1      -5.507  -1.281  -0.714  1.00  0.00     0.187 HD
BRANCH   7   9
HETATM    9  C   UNK N   1      -3.779   0.878  -0.386  0.00  0.00     0.008 A 
HETATM   10  C   UNK N   1      -2.804   1.811  -0.016  0.00  0.00     0.016 A 
HETATM   11  C   UNK N   1      -3.001   3.168  -0.276  0.00  0.00     0.018 A 
HETATM   12  C   UNK N   1      -4.173   3.578  -0.914  0.00  0.00     0.087 A 
HETATM   13  N   UNK N   1      -5.112   2.662  -1.273  0.00  0.00    -0.374 N 
HETATM   14  C   UNK N   1      -4.942   1.336  -1.019  0.00  0.00     0.101 A 
ATOM     15  HN  UNK N   1      -5.961   2.976  -1.743  1.00  0.00     0.164 HD
ENDBRANCH   7   9
ENDBRANCH   1   2
BRANCH   1  16
HETATM   16  N   UNK N   1      -0.195  -1.676   1.017  0.00  0.00    -0.371 N 
HETATM   17  H   UNK N   1      -0.503  -2.608   1.100  0.00  0.00     0.161 HD
BRANCH  16  18
HETATM   18  C   UNK N   1       1.177  -1.383   1.179  0.00  0.00     0.117 A 
HETATM   19  C   UNK N   1       2.176  -2.318   1.366  0.00  0.00     0.068 A 
HETATM   20  C   UNK N   1       3.339  -1.562   1.431  0.00  0.00     0.114 A 
HETATM   21  N   UNK N   1       3.001  -0.264   1.287  0.00  0.00    -0.297 N 
HETATM   22  N   UNK N   1       1.696  -0.147   1.135  0.00  0.00    -0.284 N 
ATOM     23  HN  UNK N   1       1.177   0.723   1.008  1.00  0.00     0.188 HD
BRANCH  21  24
HETATM   24  C   UNK N   1       3.907   0.874   1.287  0.00  0.00     0.186 C 
BRANCH  24  25
HETATM   25  C   UNK N   1       4.678   0.937   0.012  0.00  0.00    -0.039 A 
HETATM   26  C   UNK N   1       5.708   0.025  -0.253  0.00  0.00     0.009 A 
HETATM   27  C   UNK N   1       6.418   0.103  -1.455  0.00  0.00     0.001 A 
HETATM   28  C   UNK N   1       6.098   1.088  -2.395  0.00  0.00     0.000 A 
HETATM   29  C   UNK N   1       5.071   1.998  -2.131  0.00  0.00     0.001 A 
HETATM   30  C   UNK N   1       4.365   1.924  -0.928  0.00  0.00     0.009 A 
ENDBRANCH  24  25
ENDBRANCH  21  24
ENDBRANCH  16  18
ENDBRANCH   1  16
TORSDOF 6
