REMARK  6 active torsions:
REMARK  status: ('A' for Active; 'I' for Inactive)
REMARK    1  A    between atoms: C_2  and  C_3 
REMARK       I    between atoms: C_2  and  N_15 
REMARK    2  A    between atoms: C_7  and  C_8 
REMARK    3  A    between atoms: C_8  and  N_9 
REMARK    4  A    between atoms: C_18  and  S_19 
REMARK    5  A    between atoms: S_19  and  N_22 
REMARK    6  A    between atoms: N_22  and  C_23 
ROOT
HETATM    1  O   UNK N   1       0.644  -1.587  -2.266  0.00  0.00    -0.267 OA
HETATM    2  C   UNK N   1       0.222  -0.903  -1.345  0.00  0.00     0.253 C 
HETATM    3  N   UNK N   1      -1.094  -1.021  -0.976  0.00  0.00    -0.347 N 
HETATM    4  C   UNK N   1      -1.988  -1.947  -1.624  0.00  0.00     0.127 C 
HETATM    5  C   UNK N   1      -3.294  -1.818  -0.848  0.00  0.00     0.043 C 
HETATM    6  C   UNK N   1      -3.195  -0.450  -0.196  0.00  0.00     0.143 C 
HETATM    7  C   UNK N   1      -1.723  -0.226   0.035  0.00  0.00     0.147 C 
ENDROOT
BRANCH   2   8
HETATM    8  C   UNK N   1       1.175   0.045  -0.674  0.00  0.00     0.032 A 
HETATM    9  C   UNK N   1       0.826   0.774   0.475  0.00  0.00     0.017 A 
HETATM   10  C   UNK N   1       1.732   1.646   1.078  0.00  0.00     0.002 A 
HETATM   11  C   UNK N   1       3.006   1.808   0.536  0.00  0.00     0.009 A 
HETATM   12  C   UNK N   1       3.379   1.086  -0.601  0.00  0.00    -0.029 A 
HETATM   13  C   UNK N   1       2.467   0.209  -1.203  0.00  0.00     0.026 A 
BRANCH  12  14
HETATM   14  C   UNK N   1       4.745   1.288  -1.196  0.00  0.00     0.311 C 
BRANCH  14  15
HETATM   15  N   UNK N   1       5.761   0.349  -0.703  0.00  0.00     0.092 N 
HETATM   16  C   UNK N   1       5.895   0.426   0.750  0.00  0.00     0.273 C 
HETATM   17  C   UNK N   1       5.955  -0.990   1.289  0.00  0.00     0.032 C 
HETATM   18  C   UNK N   1       5.963  -1.886   0.076  0.00  0.00     0.032 C 
HETATM   19  C   UNK N   1       5.407  -1.025  -1.030  0.00  0.00     0.273 C 
ENDBRANCH  14  15
ENDBRANCH  12  14
ENDBRANCH   2   8
BRANCH   6  20
HETATM   20  S   UNK N   1      -4.138  -0.295   1.351  0.00  0.00     0.215 S 
HETATM   21  O   UNK N   1      -3.524   0.785   2.255  0.00  0.00    -0.211 OA
HETATM   22  O   UNK N   1      -4.090  -1.526   2.267  0.00  0.00    -0.211 OA
BRANCH  20  23
HETATM   23  N   UNK N   1      -5.840   0.186   1.260  0.00  0.00    -0.215 NA
HETATM   24  H   UNK N   1      -6.066   0.831   2.017  0.00  0.00     0.140 HD
BRANCH  23  25
HETATM   25  C   UNK N   1      -6.094   0.813  -0.032  0.00  0.00     0.071 A 
HETATM   26  C   UNK N   1      -6.833   2.117   0.202  0.00  0.00     0.022 A 
HETATM   27  C   UNK N   1      -5.365   2.143  -0.151  0.00  0.00     0.022 A 
ENDBRANCH  23  25
ENDBRANCH  20  23
ENDBRANCH   6  20
TORSDOF 6
