REMARK  4 active torsions:
REMARK  status: ('A' for Active; 'I' for Inactive)
REMARK       I    between atoms: C_2  and  N_4 
REMARK    1  A    between atoms: N_4  and  C_5 
REMARK    2  A    between atoms: C_5  and  C_6 
REMARK    3  A    between atoms: C_9  and  C_10 
REMARK       I    between atoms: C_10  and  N_12 
REMARK    4  A    between atoms: C_15  and  O_16 
ROOT
HETATM    1  C   UNK N   1      -0.298   0.656  -1.218  0.00  0.00     0.260 C 
HETATM    2  O   UNK N   1      -0.294   1.684  -1.884  0.00  0.00    -0.267 OA
HETATM    3  N   UNK N   1      -1.372  -0.190  -1.297  0.00  0.00    -0.347 N 
HETATM    4  C   UNK N   1      -1.452  -1.416  -0.528  0.00  0.00     0.129 C 
HETATM    5  C   UNK N   1      -2.717  -1.439   0.343  0.00  0.00     0.058 C 
HETATM    6  C   UNK N   1      -3.507  -0.125   0.288  0.00  0.00     0.064 C 
HETATM    7  C   UNK N   1      -4.807  -0.328   1.079  0.00  0.00     0.038 C 
HETATM    8  C   UNK N   1      -6.007   0.324   0.401  0.00  0.00     0.003 C 
HETATM    9  C   UNK N   1      -6.230  -0.301  -0.983  0.00  0.00     0.001 C 
HETATM   10  C   UNK N   1      -4.933  -0.515  -1.785  0.00  0.00     0.009 C 
HETATM   11  C   UNK N   1      -3.773   0.281  -1.193  0.00  0.00     0.038 C 
HETATM   12  C   UNK N   1      -2.527   0.169  -2.092  0.00  0.00     0.133 C 
ENDROOT
BRANCH   1  13
HETATM   13  C   UNK N   1       0.870   0.393  -0.333  0.00  0.00     0.073 A 
HETATM   14  C   UNK N   1       1.069  -0.688   0.539  0.00  0.00     0.026 A 
HETATM   15  C   UNK N   1       2.304  -0.625   1.246  0.00  0.00     0.018 A 
HETATM   16  C   UNK N   1       3.050   0.511   0.928  0.00  0.00     0.001 A 
HETATM   17  S   UNK N   1       2.197   1.378  -0.190  0.00  0.00    -0.088 SA
BRANCH  16  18
HETATM   18  C   UNK N   1       4.397   0.848   1.454  0.00  0.00     0.168 C 
BRANCH  18  19
HETATM   19  N   UNK N   1       5.380   0.048   0.768  0.00  0.00    -0.357 N 
HETATM   20  C   UNK N   1       6.684   0.044   1.126  0.00  0.00     0.213 C 
HETATM   21  C   UNK N   1       7.657  -0.766   0.341  0.00  0.00     0.117 C 
HETATM   22  O   UNK N   1       7.072   0.697   2.083  0.00  0.00    -0.274 OA
HETATM   23  H   UNK N   1       5.092  -0.516   0.014  0.00  0.00     0.162 HD
ENDBRANCH  18  19
ENDBRANCH  16  18
ENDBRANCH   1  13
BRANCH   6  24
HETATM   24  O   UNK N   1      -2.762   0.883   0.907  0.00  0.00    -0.389 OA
HETATM   25  H   UNK N   1      -2.592   0.638   1.830  0.00  0.00     0.210 HD
ENDBRANCH   6  24
TORSDOF 4
