REMARK  6 active torsions:
REMARK  status: ('A' for Active; 'I' for Inactive)
REMARK    1  A    between atoms: C_7  and  C_8 
REMARK    2  A    between atoms: C_11  and  N_12 
REMARK    3  A    between atoms: N_12  and  C_13 
REMARK    4  A    between atoms: C_13  and  C_14 
REMARK    5  A    between atoms: C_17  and  N_18 
REMARK    6  A    between atoms: C_21  and  C_22 
ROOT
HETATM    1  C   UNK N   1      -0.597   0.001  -1.278  0.00  0.00     0.158 C 
ENDROOT
BRANCH   1   2
HETATM    2  N   UNK N   1      -1.438  -1.105  -0.882  0.00  0.00    -0.386 N 
HETATM    3  H   UNK N   1      -1.063  -2.015  -0.853  0.00  0.00     0.160 HD
BRANCH   2   4
HETATM    4  C   UNK N   1      -2.798  -0.896  -0.533  0.00  0.00     0.028 A 
HETATM    5  C   UNK N   1      -3.287   0.398  -0.291  0.00  0.00     0.030 A 
HETATM    6  C   UNK N   1      -4.634   0.596   0.016  0.00  0.00     0.018 A 
HETATM    7  C   UNK N   1      -5.513  -0.491   0.068  0.00  0.00     0.017 A 
HETATM    8  C   UNK N   1      -5.029  -1.784  -0.175  0.00  0.00     0.018 A 
HETATM    9  C   UNK N   1      -3.674  -1.986  -0.468  0.00  0.00     0.030 A 
BRANCH   7  10
HETATM   10  C   UNK N   1      -6.932  -0.262   0.374  0.00  0.00     0.174 A 
HETATM   11  N   UNK N   1      -7.881  -1.220   0.408  0.00  0.00    -0.277 N 
HETATM   12  N   UNK N   1      -9.017  -0.616   0.719  0.00  0.00    -0.281 N 
ATOM     13  HN  UNK N   1      -7.748  -2.216   0.228  1.00  0.00     0.189 HD
HETATM   14  C   UNK N   1      -8.729   0.690   0.867  0.00  0.00     0.136 A 
ATOM     15  HN  UNK N   1      -9.932  -1.055   0.825  1.00  0.00     0.189 HD
HETATM   16  C   UNK N   1      -9.720   1.738   1.230  0.00  0.00     0.099 C 
HETATM   17  O   UNK N   1      -7.455   0.908   0.655  0.00  0.00    -0.278 OA
ENDBRANCH   7  10
ENDBRANCH   2   4
ENDBRANCH   1   2
BRANCH   1  18
HETATM   18  C   UNK N   1       0.843  -0.149  -0.895  0.00  0.00    -0.040 A 
HETATM   19  C   UNK N   1       1.726   0.847  -1.312  0.00  0.00     0.011 A 
HETATM   20  C   UNK N   1       3.074   0.787  -0.968  0.00  0.00     0.032 A 
HETATM   21  C   UNK N   1       3.567  -0.280  -0.210  0.00  0.00     0.056 A 
HETATM   22  C   UNK N   1       2.686  -1.298   0.200  0.00  0.00     0.032 A 
HETATM   23  C   UNK N   1       1.326  -1.231  -0.138  0.00  0.00     0.011 A 
BRANCH  21  24
HETATM   24  N   UNK N   1       4.946  -0.285   0.187  0.00  0.00    -0.267 N 
HETATM   25  C   UNK N   1       5.601  -1.276   0.828  0.00  0.00     0.119 A 
HETATM   26  C   UNK N   1       6.894  -0.840   1.084  0.00  0.00     0.055 A 
HETATM   27  C   UNK N   1       6.933   0.446   0.571  0.00  0.00     0.134 A 
HETATM   28  N   UNK N   1       5.746   0.754   0.028  0.00  0.00    -0.290 N 
ATOM     29  HN  UNK N   1       5.504   1.634  -0.428  1.00  0.00     0.187 HD
BRANCH  27  30
HETATM   30  C   UNK N   1       8.076   1.407   0.647  0.00  0.00     0.434 C 
HETATM   31  F   UNK N   1       8.429   1.820  -0.624  0.00  0.00    -0.165 F 
HETATM   32  F   UNK N   1       9.170   0.820   1.257  0.00  0.00    -0.165 F 
HETATM   33  F   UNK N   1       7.687   2.508   1.388  0.00  0.00    -0.165 F 
ENDBRANCH  27  30
ENDBRANCH  21  24
ENDBRANCH   1  18
TORSDOF 6
