REMARK  3 active torsions:
REMARK  status: ('A' for Active; 'I' for Inactive)
REMARK    1  A    between atoms: C_3  and  C_2 
REMARK       I    between atoms: N_11  and  C_12 
REMARK    2  A    between atoms: C_12  and  C_14 
REMARK    3  A    between atoms: C_17  and  N_18 
ROOT
HETATM    1  C   UNK N   1       0.235  -1.225   0.154  0.00  0.00     0.047 A 
HETATM    2  C   UNK N   1       0.254   0.115  -0.257  0.00  0.00     0.022 A 
HETATM    3  C   UNK N   1       1.468   0.797  -0.389  0.00  0.00     0.051 A 
HETATM    4  C   UNK N   1       2.666   0.140  -0.077  0.00  0.00     0.127 A 
HETATM    5  N   UNK N   1       2.630  -1.160   0.320  0.00  0.00    -0.350 N 
ATOM      6  HN  UNK N   1       3.504  -1.633   0.547  1.00  0.00     0.166 HD
HETATM    7  C   UNK N   1       1.463  -1.848   0.422  0.00  0.00     0.106 A 
ENDROOT
BRANCH   1   8
HETATM    8  C   UNK N   1      -1.022  -2.031   0.304  0.00  0.00     0.255 C 
HETATM    9  N   UNK N   1      -2.290  -1.492   0.338  0.00  0.00    -0.336 N 
HETATM   10  C   UNK N   1      -3.420  -2.426   0.508  0.00  0.00     0.147 C 
HETATM   11  C   UNK N   1      -2.514  -0.039   0.336  0.00  0.00     0.137 C 
HETATM   12  C   UNK N   1      -4.716  -1.758   0.995  0.00  0.00     0.148 C 
HETATM   13  N   UNK N   1      -4.918  -0.549   0.227  0.00  0.00    -0.357 N 
HETATM   14  C   UNK N   1      -6.043  -0.081  -0.331  0.00  0.00     0.091 A 
HETATM   15  C   UNK N   1      -3.917   0.259  -0.099  0.00  0.00     0.034 A 
HETATM   16  C   UNK N   1      -5.738   1.077  -1.036  0.00  0.00     0.019 A 
HETATM   17  C   UNK N   1      -4.368   1.287  -0.897  0.00  0.00     0.028 A 
HETATM   18  O   UNK N   1      -0.896  -3.244   0.422  0.00  0.00    -0.267 OA
BRANCH  11  19
HETATM   19  C   UNK N   1      -2.292   0.480   1.760  0.00  0.00     0.027 C 
HETATM   20  C   UNK N   1      -2.490   1.983   1.860  0.00  0.00     0.007 C 
ENDBRANCH  11  19
ENDBRANCH   1   8
BRANCH   4  21
HETATM   21  N   UNK N   1       3.925   0.831  -0.191  0.00  0.00    -0.244 N 
HETATM   22  N   UNK N   1       4.067   1.993  -0.802  0.00  0.00    -0.297 N 
HETATM   23  C   UNK N   1       5.368   2.335  -0.740  0.00  0.00     0.024 A 
ATOM     24  HN  UNK N   1       3.324   2.535  -1.243  1.00  0.00     0.187 HD
HETATM   25  C   UNK N   1       5.936   3.569  -1.342  0.00  0.00     0.070 C 
HETATM   26  C   UNK N   1       6.085   1.370  -0.056  0.00  0.00     0.052 A 
HETATM   27  C   UNK N   1       5.130   0.429   0.275  0.00  0.00     0.034 A 
HETATM   28  C   UNK N   1       5.397  -0.813   1.057  0.00  0.00     0.070 C 
ENDBRANCH   4  21
TORSDOF 3
