REMARK  2 active torsions:
REMARK  status: ('A' for Active; 'I' for Inactive)
REMARK    1  A    between atoms: C_5  and  C_6 
REMARK       I    between atoms: C_6  and  N_8 
REMARK    2  A    between atoms: N_11  and  C_12 
ROOT
HETATM    1  C   UNK N   1      -2.803  -0.090   0.147  0.00  0.00     0.051 A 
HETATM    2  C   UNK N   1      -3.701  -1.123   0.527  0.00  0.00     0.031 A 
HETATM    3  C   UNK N   1      -5.068  -0.890   0.645  0.00  0.00     0.002 A 
HETATM    4  C   UNK N   1      -5.574   0.380   0.391  0.00  0.00     0.002 A 
HETATM    5  C   UNK N   1      -4.722   1.417   0.019  0.00  0.00     0.025 A 
HETATM    6  C   UNK N   1      -3.348   1.212  -0.111  0.00  0.00     0.071 A 
HETATM    7  C   UNK N   1      -2.557   2.358  -0.501  0.00  0.00     0.102 C 
HETATM    8  N   UNK N   1      -1.887   3.252  -0.812  0.00  0.00    -0.191 NA
ENDROOT
BRANCH   1   9
HETATM    9  N   UNK N   1      -1.403  -0.424   0.029  0.00  0.00    -0.377 N 
HETATM   10  C   UNK N   1      -1.004  -1.779   0.330  0.00  0.00     0.143 C 
HETATM   11  C   UNK N   1       0.063  -1.718   1.378  0.00  0.00     0.145 C 
HETATM   12  N   UNK N   1       1.171  -1.026   0.782  0.00  0.00    -0.347 N 
HETATM   13  C   UNK N   1       2.374  -1.668   0.712  0.00  0.00     0.249 C 
HETATM   14  C   UNK N   1       0.953   0.348   0.340  0.00  0.00     0.145 C 
HETATM   15  O   UNK N   1       2.477  -2.800   1.160  0.00  0.00    -0.270 OA
HETATM   16  C   UNK N   1      -0.370   0.484  -0.470  0.00  0.00     0.143 C 
BRANCH  13  17
HETATM   17  C   UNK N   1       3.612  -1.046   0.159  0.00  0.00     0.214 C 
HETATM   18  C   UNK N   1       4.479  -0.575   1.309  0.00  0.00     0.044 C 
HETATM   19  C   UNK N   1       5.084   0.688   0.792  0.00  0.00     0.034 C 
HETATM   20  C   UNK N   1       4.556   0.781  -0.631  0.00  0.00     0.118 C 
HETATM   21  C   UNK N   1       4.271   2.219  -1.018  0.00  0.00     0.039 C 
HETATM   22  O   UNK N   1       3.396  -0.002  -0.752  0.00  0.00    -0.372 OA
ENDBRANCH  13  17
ENDBRANCH   1   9
TORSDOF 2
