REMARK  7 active torsions:
REMARK  status: ('A' for Active; 'I' for Inactive)
REMARK    1  A    between atoms: O_2  and  C_3 
REMARK    2  A    between atoms: C_5  and  C_3 
REMARK    3  A    between atoms: C_7  and  C_8 
REMARK       I    between atoms: N_15  and  C_16 
REMARK    4  A    between atoms: C_16  and  C_18 
REMARK    5  A    between atoms: C_18  and  S_19 
REMARK    6  A    between atoms: S_19  and  C_20 
REMARK    7  A    between atoms: C_20  and  C_21 
ROOT
HETATM    1  C   UNK N   1      -1.762  -0.510  -1.150  0.00  0.00     0.104 C 
HETATM    2  C   UNK N   1      -2.537  -0.547   0.173  0.00  0.00     0.027 C 
HETATM    3  C   UNK N   1      -2.312   0.753   0.974  0.00  0.00     0.037 C 
HETATM    4  C   UNK N   1      -0.883   1.303   0.835  0.00  0.00     0.135 C 
HETATM    5  N   UNK N   1      -0.008   0.235   0.410  0.00  0.00    -0.350 N 
HETATM    6  C   UNK N   1       0.915  -0.287   1.265  0.00  0.00     0.229 C 
HETATM    7  O   UNK N   1       1.043   0.190   2.386  0.00  0.00    -0.273 OA
HETATM    8  C   UNK N   1      -0.247  -0.361  -0.893  0.00  0.00     0.140 C 
ENDROOT
BRANCH   6   9
HETATM    9  C   UNK N   1       1.769  -1.459   0.849  0.00  0.00     0.177 C 
BRANCH   9  10
HETATM   10  S   UNK N   1       2.854  -2.091   2.180  0.00  0.00    -0.154 SA
BRANCH  10  11
HETATM   11  C   UNK N   1       3.943  -0.633   2.129  0.00  0.00     0.131 C 
BRANCH  11  12
HETATM   12  C   UNK N   1       4.796  -0.659   0.912  0.00  0.00     0.018 A 
HETATM   13  C   UNK N   1       5.874  -1.543   0.819  0.00  0.00     0.026 A 
HETATM   14  C   UNK N   1       6.653  -1.547  -0.338  0.00  0.00     0.003 A 
HETATM   15  C   UNK N   1       6.344  -0.678  -1.385  0.00  0.00     0.017 A 
HETATM   16  C   UNK N   1       5.258   0.190  -1.256  0.00  0.00     0.088 A 
HETATM   17  N   UNK N   1       4.515   0.185  -0.117  0.00  0.00    -0.369 N 
ATOM     18  HN  UNK N   1       3.728   0.829  -0.033  1.00  0.00     0.165 HD
ENDBRANCH  11  12
ENDBRANCH  10  11
ENDBRANCH   9  10
ENDBRANCH   6   9
BRANCH   3  19
HETATM   19  C   UNK N   1      -3.327   1.796   0.633  0.00  0.00    -0.052 A 
HETATM   20  C   UNK N   1      -4.145   2.311   1.644  0.00  0.00     0.007 A 
HETATM   21  C   UNK N   1      -5.105   3.282   1.344  0.00  0.00     0.001 A 
HETATM   22  C   UNK N   1      -5.256   3.734   0.029  0.00  0.00     0.000 A 
HETATM   23  C   UNK N   1      -4.442   3.220  -0.985  0.00  0.00     0.001 A 
HETATM   24  C   UNK N   1      -3.476   2.257  -0.685  0.00  0.00     0.007 A 
ENDBRANCH   3  19
BRANCH   1  25
HETATM   25  C   UNK N   1      -2.093  -1.702  -2.004  0.00  0.00     0.264 C 
HETATM   26  O   UNK N   1      -1.204  -2.430  -2.426  0.00  0.00    -0.265 OA
BRANCH  25  27
HETATM   27  O   UNK N   1      -3.391  -1.957  -2.301  0.00  0.00    -0.326 OA
HETATM   28  C   UNK N   1      -3.776  -3.049  -3.043  0.00  0.00     0.213 C 
ENDBRANCH  25  27
ENDBRANCH   1  25
TORSDOF 7
