REMARK  3 active torsions:
REMARK  status: ('A' for Active; 'I' for Inactive)
REMARK    1  A    between atoms: C_3  and  C_2 
REMARK       I    between atoms: N_11  and  C_12 
REMARK    2  A    between atoms: C_12  and  C_14 
REMARK    3  A    between atoms: C_17  and  N_18 
ROOT
HETATM    1  C   UNK N   1       0.068   0.081   1.018  0.00  0.00     0.047 A 
HETATM    2  C   UNK N   1       0.948   1.067   1.481  0.00  0.00     0.022 A 
HETATM    3  C   UNK N   1       2.294   1.032   1.141  0.00  0.00     0.051 A 
HETATM    4  C   UNK N   1       2.779   0.002   0.334  0.00  0.00     0.127 A 
HETATM    5  N   UNK N   1       1.920  -0.966  -0.100  0.00  0.00    -0.350 N 
ATOM      6  HN  UNK N   1       2.281  -1.728  -0.674  1.00  0.00     0.166 HD
HETATM    7  C   UNK N   1       0.594  -0.942   0.214  0.00  0.00     0.106 A 
ENDROOT
BRANCH   1   8
HETATM    8  C   UNK N   1      -1.388   0.232   1.347  0.00  0.00     0.255 C 
HETATM    9  N   UNK N   1      -2.380  -0.597   0.856  0.00  0.00    -0.336 N 
HETATM   10  C   UNK N   1      -2.079  -1.732  -0.004  0.00  0.00     0.147 C 
HETATM   11  C   UNK N   1      -3.809  -0.322   1.018  0.00  0.00     0.137 C 
HETATM   12  C   UNK N   1      -2.683  -1.549  -1.417  0.00  0.00     0.148 C 
HETATM   13  N   UNK N   1      -3.767  -0.563  -1.434  0.00  0.00    -0.357 N 
HETATM   14  C   UNK N   1      -4.332  -0.022  -2.524  0.00  0.00     0.091 A 
HETATM   15  C   UNK N   1      -4.295   0.028  -0.355  0.00  0.00     0.034 A 
HETATM   16  C   UNK N   1      -5.240   0.950  -2.125  0.00  0.00     0.019 A 
HETATM   17  C   UNK N   1      -5.207   0.992  -0.736  0.00  0.00     0.028 A 
HETATM   18  O   UNK N   1      -1.694   1.191   2.040  0.00  0.00    -0.267 OA
BRANCH  11  19
HETATM   19  C   UNK N   1      -4.238   0.664   2.116  0.00  0.00     0.027 C 
HETATM   20  C   UNK N   1      -5.741   0.648   2.329  0.00  0.00     0.007 C 
ENDBRANCH  11  19
ENDBRANCH   1   8
BRANCH   4  21
HETATM   21  N   UNK N   1       4.169  -0.051  -0.041  0.00  0.00    -0.244 N 
HETATM   22  N   UNK N   1       4.690  -1.057  -0.719  0.00  0.00    -0.297 N 
HETATM   23  C   UNK N   1       6.000  -0.801  -0.898  0.00  0.00     0.024 A 
ATOM     24  HN  UNK N   1       4.188  -1.881  -1.049  1.00  0.00     0.187 HD
HETATM   25  C   UNK N   1       6.937  -1.709  -1.607  0.00  0.00     0.070 C 
HETATM   26  C   UNK N   1       6.334   0.411  -0.323  0.00  0.00     0.052 A 
HETATM   27  C   UNK N   1       5.143   0.858   0.212  0.00  0.00     0.034 A 
HETATM   28  C   UNK N   1       4.980   2.151   0.937  0.00  0.00     0.070 C 
ENDBRANCH   4  21
TORSDOF 3
