REMARK  8 active torsions:
REMARK  status: ('A' for Active; 'I' for Inactive)
REMARK    1  A    between atoms: C_2  and  O_1 
REMARK    2  A    between atoms: C_2  and  C_3 
REMARK    3  A    between atoms: C_2  and  C_18 
REMARK    4  A    between atoms: C_3  and  N_4 
REMARK    5  A    between atoms: N_4  and  C_5 
REMARK    6  A    between atoms: C_5  and  C_6 
REMARK    7  A    between atoms: C_18  and  O_19 
REMARK    8  A    between atoms: O_19  and  C_20 
ROOT
HETATM    1  C   UNK N   1      -0.256   1.258  -0.370  0.00  0.00     0.303 C 
ENDROOT
BRANCH   1   2
HETATM    2  C   UNK N   1       0.753   1.308  -1.515  0.00  0.00     0.170 C 
BRANCH   2   3
HETATM    3  O   UNK N   1       0.089   1.448  -2.734  0.00  0.00    -0.392 OA
HETATM    4  H   UNK N   1      -0.469   2.241  -2.709  0.00  0.00     0.210 HD
ENDBRANCH   2   3
BRANCH   2   5
HETATM    5  C   UNK N   1       1.634   0.064  -1.541  0.00  0.00     0.209 C 
BRANCH   5   6
HETATM    6  O   UNK N   1       2.216  -0.100  -0.304  0.00  0.00    -0.348 OA
BRANCH   6   7
HETATM    7  C   UNK N   1       3.549  -0.133  -0.084  0.00  0.00     0.071 A 
HETATM    8  C   UNK N   1       4.008  -0.122   1.253  0.00  0.00     0.039 A 
HETATM    9  C   UNK N   1       5.384  -0.144   1.537  0.00  0.00     0.042 A 
HETATM   10  C   UNK N   1       6.263  -0.185   0.459  0.00  0.00     0.105 A 
HETATM   11  C   UNK N   1       5.838  -0.201  -0.810  0.00  0.00     0.107 A 
HETATM   12  O   UNK N   1       7.592  -0.216   0.482  0.00  0.00    -0.323 OA
HETATM   13  C   UNK N   1       4.486  -0.173  -1.146  0.00  0.00     0.076 A 
HETATM   14  O   UNK N   1       6.894  -0.246  -1.622  0.00  0.00    -0.323 OA
HETATM   15  C   UNK N   1       8.054  -0.259  -0.839  0.00  0.00     0.352 A 
ENDBRANCH   6   7
ENDBRANCH   5   6
ENDBRANCH   2   5
ENDBRANCH   1   2
BRANCH   1  16
HETATM   16  N   UNK N   1      -1.208   0.181  -0.584  0.00  0.00     0.090 N 
HETATM   17  H   UNK N   1      -0.805  -0.540  -1.183  0.00  0.00     0.316 HD
BRANCH  16  18
HETATM   18  C   UNK N   1      -1.554  -0.371   0.716  0.00  0.00     0.310 C 
BRANCH  18  19
HETATM   19  C   UNK N   1      -2.949   0.019   1.089  0.00  0.00    -0.003 A 
HETATM   20  C   UNK N   1      -3.152   0.755   2.261  0.00  0.00     0.014 A 
HETATM   21  C   UNK N   1      -4.440   1.143   2.639  0.00  0.00     0.044 A 
HETATM   22  C   UNK N   1      -5.540   0.800   1.850  0.00  0.00     0.128 A 
HETATM   23  F   UNK N   1      -6.783   1.191   2.230  0.00  0.00    -0.205 F 
HETATM   24  C   UNK N   1      -5.353   0.060   0.674  0.00  0.00     0.030 A 
HETATM   25  C   UNK N   1      -6.439  -0.292  -0.132  0.00  0.00     0.018 A 
HETATM   26  C   UNK N   1      -4.052  -0.338   0.290  0.00  0.00     0.053 A 
HETATM   27  C   UNK N   1      -6.227  -1.027  -1.299  0.00  0.00     0.018 A 
HETATM   28  C   UNK N   1      -4.929  -1.405  -1.647  0.00  0.00     0.088 A 
HETATM   29  N   UNK N   1      -3.879  -1.058  -0.855  0.00  0.00    -0.365 N 
ATOM     30  HN  UNK N   1      -2.937  -1.344  -1.124  1.00  0.00     0.165 HD
ENDBRANCH  18  19
ENDBRANCH  16  18
ENDBRANCH   1  16
TORSDOF 8
