REMARK  5 active torsions:
REMARK  status: ('A' for Active; 'I' for Inactive)
REMARK    1  A    between atoms: C_7  and  C_8 
REMARK    2  A    between atoms: C_11  and  N_12 
REMARK    3  A    between atoms: N_12  and  C_13 
REMARK    4  A    between atoms: C_13  and  C_14 
REMARK    5  A    between atoms: N_18  and  C_19 
ROOT
HETATM    1  N   UNK N   1      -0.608  -2.267  -1.849  0.00  0.00    -0.386 N 
HETATM    2  H   UNK N   1      -0.487  -3.218  -1.626  0.00  0.00     0.160 HD
ENDROOT
BRANCH   1   3
HETATM    3  C   UNK N   1      -1.554  -1.518  -1.106  0.00  0.00     0.028 A 
HETATM    4  C   UNK N   1      -1.789  -0.163  -1.384  0.00  0.00     0.030 A 
HETATM    5  C   UNK N   1      -2.715   0.558  -0.628  0.00  0.00     0.018 A 
HETATM    6  C   UNK N   1      -3.414  -0.068   0.411  0.00  0.00     0.017 A 
HETATM    7  C   UNK N   1      -3.185  -1.423   0.683  0.00  0.00     0.018 A 
HETATM    8  C   UNK N   1      -2.258  -2.144  -0.073  0.00  0.00     0.030 A 
BRANCH   6   9
HETATM    9  C   UNK N   1      -4.378   0.691   1.215  0.00  0.00     0.174 A 
HETATM   10  N   UNK N   1      -4.661   1.997   1.043  0.00  0.00    -0.277 N 
HETATM   11  N   UNK N   1      -5.564   2.312   1.958  0.00  0.00    -0.281 N 
ATOM     12  HN  UNK N   1      -4.258   2.621   0.344  1.00  0.00     0.189 HD
HETATM   13  C   UNK N   1      -5.804   1.190   2.661  0.00  0.00     0.136 A 
ATOM     14  HN  UNK N   1      -5.993   3.226   2.102  1.00  0.00     0.189 HD
HETATM   15  C   UNK N   1      -6.761   1.095   3.794  0.00  0.00     0.099 C 
HETATM   16  O   UNK N   1      -5.079   0.198   2.208  0.00  0.00    -0.278 OA
ENDBRANCH   6   9
ENDBRANCH   1   3
BRANCH   1  17
HETATM   17  C   UNK N   1       0.188  -1.707  -2.917  0.00  0.00     0.161 C 
BRANCH  17  18
HETATM   18  C   UNK N   1       1.172  -0.708  -2.400  0.00  0.00    -0.006 A 
HETATM   19  C   UNK N   1       1.351   0.578  -2.869  0.00  0.00     0.117 A 
HETATM   20  N   UNK N   1       2.378   1.125  -2.190  0.00  0.00    -0.305 N 
HETATM   21  N   UNK N   1       2.830   0.232  -1.321  0.00  0.00    -0.268 N 
ATOM     22  HN  UNK N   1       2.746   2.067  -2.322  1.00  0.00     0.186 HD
HETATM   23  C   UNK N   1       2.118  -0.907  -1.418  0.00  0.00     0.126 A 
BRANCH  21  24
HETATM   24  C   UNK N   1       3.952   0.453  -0.453  0.00  0.00     0.056 A 
HETATM   25  C   UNK N   1       4.302  -0.501   0.516  0.00  0.00     0.034 A 
HETATM   26  C   UNK N   1       5.416  -0.297   1.336  0.00  0.00     0.044 A 
HETATM   27  C   UNK N   1       6.195   0.853   1.184  0.00  0.00     0.116 A 
HETATM   28  F   UNK N   1       7.284   1.041   1.967  0.00  0.00    -0.206 F 
HETATM   29  C   UNK N   1       5.853   1.807   0.222  0.00  0.00     0.044 A 
HETATM   30  C   UNK N   1       4.732   1.611  -0.591  0.00  0.00     0.034 A 
ENDBRANCH  21  24
ENDBRANCH  17  18
ENDBRANCH   1  17
TORSDOF 5
