REMARK  2 active torsions:
REMARK  status: ('A' for Active; 'I' for Inactive)
REMARK    1  A    between atoms: C_2  and  C_4 
REMARK    2  A    between atoms: C_7  and  N_8 
REMARK       I    between atoms: N_8  and  C_9 
REMARK       I    between atoms: C_9  and  N_11 
ROOT
HETATM    1  N   UNK N   1       0.838  -0.773  -0.209  0.00  0.00    -0.338 N 
HETATM    2  C   UNK N   1      -0.173   0.127  -0.072  0.00  0.00     0.318 C 
HETATM    3  O   UNK N   1       0.070   1.261   0.318  0.00  0.00    -0.247 OA
HETATM    4  N   UNK N   1      -1.450  -0.218  -0.405  0.00  0.00    -0.334 N 
HETATM    5  C   UNK N   1      -1.746  -1.536  -0.944  0.00  0.00     0.130 C 
HETATM    6  C   UNK N   1      -3.047  -2.106  -0.360  0.00  0.00     0.052 C 
HETATM    7  C   UNK N   1      -4.196  -1.083  -0.289  0.00  0.00     0.128 C 
HETATM    8  O   UNK N   1      -4.563  -0.912   1.060  0.00  0.00    -0.385 OA
HETATM    9  C   UNK N   1      -5.763  -0.181   1.071  0.00  0.00     0.168 C 
HETATM   10  C   UNK N   1      -5.471   1.269   0.694  0.00  0.00     0.027 C 
HETATM   11  C   UNK N   1      -4.930   1.292  -0.733  0.00  0.00     0.011 C 
HETATM   12  C   UNK N   1      -3.804   0.273  -0.914  0.00  0.00     0.033 C 
HETATM   13  C   UNK N   1      -2.504   0.781  -0.304  0.00  0.00     0.134 C 
HETATM   14  H   UNK N   1       0.619  -1.696  -0.474  0.00  0.00     0.164 HD
ENDROOT
BRANCH   1  15
HETATM   15  C   UNK N   1       2.224  -0.424   0.020  0.00  0.00     0.086 C 
HETATM   16  C   UNK N   1       3.125  -1.613  -0.294  0.00  0.00     0.026 C 
HETATM   17  C   UNK N   1       4.613  -1.308  -0.042  0.00  0.00     0.007 C 
HETATM   18  C   UNK N   1       4.885   0.096   0.530  0.00  0.00    -0.011 C 
HETATM   19  C   UNK N   1       3.960   0.344   1.735  0.00  0.00     0.007 C 
HETATM   20  C   UNK N   1       2.472   0.059   1.453  0.00  0.00     0.026 C 
BRANCH  18  21
HETATM   21  C   UNK N   1       4.735   1.200  -0.531  0.00  0.00    -0.019 C 
HETATM   22  C   UNK N   1       5.123   2.551   0.041  0.00  0.00     0.010 C 
HETATM   23  C   UNK N   1       5.603   0.926  -1.747  0.00  0.00     0.010 C 
ENDBRANCH  18  21
ENDBRANCH   1  15
TORSDOF 2
