REMARK  6 active torsions:
REMARK  status: ('A' for Active; 'I' for Inactive)
REMARK    1  A    between atoms: C_2  and  N_3 
REMARK    2  A    between atoms: N_3  and  S_4 
REMARK    3  A    between atoms: S_4  and  C_7 
REMARK    4  A    between atoms: C_11  and  C_12 
REMARK       I    between atoms: C_12  and  N_14 
REMARK    5  A    between atoms: C_18  and  C_20 
REMARK    6  A    between atoms: C_20  and  O_21 
ROOT
HETATM    1  C   UNK N   1       2.664  -0.417   0.546  0.00  0.00     0.075 A 
HETATM    2  C   UNK N   1       2.698   0.743   1.320  0.00  0.00     0.025 A 
HETATM    3  C   UNK N   1       1.550   1.514   1.470  0.00  0.00     0.003 A 
HETATM    4  C   UNK N   1       0.367   1.124   0.845  0.00  0.00     0.017 A 
HETATM    5  C   UNK N   1       0.306  -0.038   0.058  0.00  0.00     0.033 A 
HETATM    6  C   UNK N   1       1.476  -0.805  -0.087  0.00  0.00     0.041 A 
ENDROOT
BRANCH   5   7
HETATM    7  C   UNK N   1      -0.965  -0.498  -0.600  0.00  0.00     0.253 C 
HETATM    8  O   UNK N   1      -0.919  -1.519  -1.278  0.00  0.00    -0.267 OA
HETATM    9  N   UNK N   1      -2.173   0.143  -0.450  0.00  0.00    -0.347 N 
HETATM   10  C   UNK N   1      -2.317   1.337   0.361  0.00  0.00     0.126 C 
HETATM   11  C   UNK N   1      -3.375  -0.436  -1.042  0.00  0.00     0.137 C 
HETATM   12  C   UNK N   1      -3.260   1.069   1.534  0.00  0.00     0.021 C 
HETATM   13  C   UNK N   1      -4.417   0.129   1.159  0.00  0.00     0.014 C 
HETATM   14  C   UNK N   1      -4.661   0.058  -0.356  0.00  0.00    -0.006 C 
HETATM   15  C   UNK N   1      -5.768  -0.941  -0.632  0.00  0.00     0.019 C 
BRANCH  14  16
HETATM   16  C   UNK N   1      -5.071   1.426  -0.909  0.00  0.00     0.175 C 
BRANCH  16  17
HETATM   17  O   UNK N   1      -6.174   1.937  -0.218  0.00  0.00    -0.400 OA
HETATM   18  H   UNK N   1      -6.929   1.338  -0.327  0.00  0.00     0.209 HD
ENDBRANCH  16  17
ENDBRANCH  14  16
ENDBRANCH   5   7
BRANCH   1  19
HETATM   19  S   UNK N   1       4.161  -1.368   0.340  0.00  0.00     0.241 S 
HETATM   20  O   UNK N   1       5.035  -1.391   1.603  0.00  0.00    -0.206 OA
HETATM   21  O   UNK N   1       3.903  -2.863   0.099  0.00  0.00    -0.206 OA
BRANCH  19  22
HETATM   22  N   UNK N   1       5.240  -0.865  -0.963  0.00  0.00    -0.216 NA
HETATM   23  H   UNK N   1       6.123  -1.373  -0.917  0.00  0.00     0.139 HD
BRANCH  22  24
HETATM   24  C   UNK N   1       5.457   0.562  -0.796  0.00  0.00     0.100 C 
HETATM   25  C   UNK N   1       6.243   1.100  -1.971  0.00  0.00     0.021 C 
ENDBRANCH  22  24
ENDBRANCH  19  22
ENDBRANCH   1  19
TORSDOF 6
