REMARK  3 active torsions:
REMARK  status: ('A' for Active; 'I' for Inactive)
REMARK    1  A    between atoms: C_3  and  C_2 
REMARK       I    between atoms: N_11  and  C_12 
REMARK    2  A    between atoms: C_12  and  C_14 
REMARK    3  A    between atoms: C_16  and  C_17 
ROOT
HETATM    1  C   UNK N   1      -2.471   1.138   0.389  0.00  0.00     0.137 C 
HETATM    2  C   UNK N   1      -3.429   0.057   0.002  0.00  0.00     0.034 A 
HETATM    3  C   UNK N   1      -4.300  -0.037  -1.065  0.00  0.00     0.028 A 
HETATM    4  C   UNK N   1      -4.878  -1.302  -0.964  0.00  0.00     0.019 A 
HETATM    5  C   UNK N   1      -4.317  -1.916   0.149  0.00  0.00     0.091 A 
HETATM    6  N   UNK N   1      -3.451  -1.064   0.714  0.00  0.00    -0.357 N 
HETATM    7  C   UNK N   1      -2.567  -1.265   1.847  0.00  0.00     0.148 C 
HETATM    8  C   UNK N   1      -1.165  -0.753   1.458  0.00  0.00     0.147 C 
HETATM    9  N   UNK N   1      -1.165   0.484   0.653  0.00  0.00    -0.335 N 
HETATM   10  C   UNK N   1       0.041   0.964   0.178  0.00  0.00     0.272 C 
HETATM   11  O   UNK N   1       0.102   2.050  -0.380  0.00  0.00    -0.266 OA
ENDROOT
BRANCH  10  12
HETATM   12  C   UNK N   1       1.309   0.189   0.293  0.00  0.00     0.118 A 
HETATM   13  C   UNK N   1       2.568   0.668  -0.020  0.00  0.00     0.064 A 
HETATM   14  C   UNK N   1       3.391  -0.436   0.140  0.00  0.00     0.035 A 
HETATM   15  N   UNK N   1       2.653  -1.498   0.512  0.00  0.00    -0.303 N 
HETATM   16  N   UNK N   1       1.391  -1.119   0.608  0.00  0.00    -0.295 N 
ATOM     17  HN  UNK N   1       3.008  -2.438   0.691  1.00  0.00     0.186 HD
HETATM   18  H   UNK N   1       0.637  -1.696   0.867  0.00  0.00     0.187 HD
BRANCH  14  19
HETATM   19  C   UNK N   1       4.879  -0.495  -0.075  0.00  0.00    -0.007 C 
HETATM   20  C   UNK N   1       5.463   0.874  -0.377  0.00  0.00     0.021 C 
HETATM   21  C   UNK N   1       5.552  -1.042   1.169  0.00  0.00     0.021 C 
HETATM   22  C   UNK N   1       5.180  -1.416  -1.242  0.00  0.00     0.021 C 
ENDBRANCH  14  19
ENDBRANCH  10  12
BRANCH   1  23
HETATM   23  C   UNK N   1      -2.510   2.298  -0.612  0.00  0.00     0.027 C 
HETATM   24  C   UNK N   1      -2.278   3.621   0.092  0.00  0.00     0.007 C 
ENDBRANCH   1  23
TORSDOF 3
