REMARK  5 active torsions:
REMARK  status: ('A' for Active; 'I' for Inactive)
REMARK    1  A    between atoms: C_7  and  C_8 
REMARK    2  A    between atoms: C_11  and  N_12 
REMARK    3  A    between atoms: N_12  and  C_13 
REMARK    4  A    between atoms: C_13  and  C_14 
REMARK    5  A    between atoms: C_18  and  C_19 
ROOT
HETATM    1  C   UNK N   1      -3.549   0.031   0.384  0.00  0.00     0.017 A 
HETATM    2  C   UNK N   1      -2.889   0.456   1.548  0.00  0.00     0.018 A 
HETATM    3  C   UNK N   1      -1.491   0.587   1.559  0.00  0.00     0.030 A 
HETATM    4  C   UNK N   1      -0.749   0.288   0.408  0.00  0.00     0.028 A 
HETATM    5  C   UNK N   1      -1.419  -0.130  -0.752  0.00  0.00     0.030 A 
HETATM    6  C   UNK N   1      -2.806  -0.253  -0.764  0.00  0.00     0.018 A 
ENDROOT
BRANCH   4   7
HETATM    7  N   UNK N   1       0.669   0.385   0.420  0.00  0.00    -0.385 N 
HETATM    8  H   UNK N   1       1.132   0.779   1.194  0.00  0.00     0.160 HD
BRANCH   7   9
HETATM    9  C   UNK N   1       1.428  -0.098  -0.711  0.00  0.00     0.167 C 
BRANCH   9  10
HETATM   10  C   UNK N   1       2.890   0.168  -0.611  0.00  0.00     0.017 A 
HETATM   11  C   UNK N   1       3.658   0.783  -1.608  0.00  0.00     0.104 A 
HETATM   12  N   UNK N   1       5.016   0.773  -1.369  0.00  0.00    -0.362 N 
HETATM   13  C   UNK N   1       5.342   0.152  -0.203  0.00  0.00     0.058 A 
ATOM     14  HN  UNK N   1       5.703   1.187  -1.999  1.00  0.00     0.165 HD
HETATM   15  S   UNK N   1       3.950  -0.379   0.534  0.00  0.00    -0.077 SA
BRANCH  13  16
HETATM   16  C   UNK N   1       6.762  -0.041   0.261  0.00  0.00    -0.002 C 
HETATM   17  C   UNK N   1       7.499  -0.907  -0.742  0.00  0.00     0.021 C 
HETATM   18  C   UNK N   1       6.833  -0.715   1.620  0.00  0.00     0.021 C 
HETATM   19  C   UNK N   1       7.459   1.302   0.351  0.00  0.00     0.021 C 
ENDBRANCH  13  16
ENDBRANCH   9  10
ENDBRANCH   7   9
ENDBRANCH   4   7
BRANCH   1  20
HETATM   20  C   UNK N   1      -5.009  -0.141   0.350  0.00  0.00     0.174 A 
HETATM   21  N   UNK N   1      -5.841   0.067   1.389  0.00  0.00    -0.277 N 
HETATM   22  N   UNK N   1      -7.061  -0.213   0.958  0.00  0.00    -0.281 N 
ATOM     23  HN  UNK N   1      -5.581   0.379   2.325  1.00  0.00     0.189 HD
HETATM   24  C   UNK N   1      -6.938  -0.583  -0.331  0.00  0.00     0.136 A 
ATOM     25  HN  UNK N   1      -7.926  -0.158   1.496  1.00  0.00     0.189 HD
HETATM   26  C   UNK N   1      -8.069  -0.989  -1.206  0.00  0.00     0.099 C 
HETATM   27  O   UNK N   1      -5.683  -0.540  -0.703  0.00  0.00    -0.278 OA
ENDBRANCH   1  20
TORSDOF 5
