REMARK  6 active torsions:
REMARK  status: ('A' for Active; 'I' for Inactive)
REMARK    1  A    between atoms: C_8  and  C_7 
REMARK       I    between atoms: N_10  and  C_11 
REMARK    2  A    between atoms: C_11  and  C_13 
REMARK    3  A    between atoms: C_14  and  C_15 
REMARK    4  A    between atoms: C_18  and  O_19 
REMARK    5  A    between atoms: O_19  and  C_20 
REMARK    6  A    between atoms: C_20  and  C_21 
REMARK       I    between atoms: C_21  and  N_22 
ROOT
HETATM    1  C   UNK N   1      -3.766   0.162  -0.500  0.00  0.00     0.172 C 
HETATM    2  C   UNK N   1      -3.145  -0.862   0.450  0.00  0.00     0.163 C 
HETATM    3  N   UNK N   1      -1.705  -0.655   0.575  0.00  0.00    -0.344 N 
HETATM    4  C   UNK N   1      -0.961  -1.587   1.267  0.00  0.00     0.243 C 
HETATM    5  O   UNK N   1      -1.529  -2.544   1.780  0.00  0.00    -0.268 OA
HETATM    6  C   UNK N   1      -1.075   0.543   0.005  0.00  0.00     0.152 C 
HETATM    7  C   UNK N   1      -2.040   1.477  -0.732  0.00  0.00     0.188 C 
HETATM    8  O   UNK N   1      -3.305   1.430  -0.143  0.00  0.00    -0.378 OA
ENDROOT
BRANCH   4   9
HETATM    9  C   UNK N   1       0.524  -1.521   1.416  0.00  0.00     0.075 C 
HETATM   10  C   UNK N   1       1.255  -0.565   0.847  0.00  0.00     0.017 C 
BRANCH  10  11
HETATM   11  C   UNK N   1       2.710  -0.454   0.878  0.00  0.00    -0.036 A 
HETATM   12  C   UNK N   1       3.532  -1.391   1.520  0.00  0.00     0.014 A 
HETATM   13  C   UNK N   1       4.925  -1.242   1.470  0.00  0.00     0.037 A 
HETATM   14  C   UNK N   1       5.495  -0.163   0.781  0.00  0.00     0.069 A 
HETATM   15  C   UNK N   1       4.658   0.773   0.155  0.00  0.00     0.037 A 
HETATM   16  C   UNK N   1       3.278   0.624   0.202  0.00  0.00     0.014 A 
BRANCH  14  17
HETATM   17  O   UNK N   1       6.845  -0.047   0.716  0.00  0.00    -0.342 OA
BRANCH  17  18
HETATM   18  C   UNK N   1       7.490   0.979   0.043  0.00  0.00     0.278 C 
BRANCH  18  19
HETATM   19  C   UNK N   1       7.356   0.862  -1.452  0.00  0.00     0.239 C 
HETATM   20  N   UNK N   1       7.846   1.838  -2.240  0.00  0.00    -0.368 N 
HETATM   21  H   UNK N   1       8.296   2.616  -1.837  0.00  0.00     0.159 HD
HETATM   22  H   UNK N   1       7.756   1.773  -3.218  0.00  0.00     0.159 HD
HETATM   23  O   UNK N   1       6.800  -0.100  -1.959  0.00  0.00    -0.271 OA
ENDBRANCH  18  19
ENDBRANCH  17  18
ENDBRANCH  14  17
ENDBRANCH  10  11
ENDBRANCH   4   9
BRANCH   1  24
HETATM   24  C   UNK N   1      -5.266   0.135  -0.613  0.00  0.00    -0.022 A 
HETATM   25  C   UNK N   1      -6.023  -0.723   0.200  0.00  0.00     0.010 A 
HETATM   26  C   UNK N   1      -7.414  -0.763   0.086  0.00  0.00     0.001 A 
HETATM   27  C   UNK N   1      -8.062   0.053  -0.843  0.00  0.00     0.001 A 
HETATM   28  C   UNK N   1      -7.321   0.909  -1.660  0.00  0.00     0.007 A 
HETATM   29  C   UNK N   1      -5.928   0.956  -1.553  0.00  0.00    -0.053 A 
HETATM   30  C   UNK N   1      -5.173   1.876  -2.455  0.00  0.00     0.049 C 
ENDBRANCH   1  24
TORSDOF 6
