REMARK  4 active torsions:
REMARK  status: ('A' for Active; 'I' for Inactive)
REMARK    1  A    between atoms: O_2  and  C_3 
REMARK    2  A    between atoms: C_3  and  C_4 
REMARK    3  A    between atoms: C_3  and  C_18 
REMARK    4  A    between atoms: C_4  and  N_5 
REMARK       I    between atoms: N_5  and  C_6 
REMARK       I    between atoms: C_6  and  N_8 
ROOT
HETATM    1  N   UNK N   1      -0.512  -1.236  -0.522  0.00  0.00    -0.340 N 
HETATM    2  C   UNK N   1       0.740  -1.568  -0.115  0.00  0.00     0.318 C 
HETATM    3  O   UNK N   1       0.889  -2.426   0.747  0.00  0.00    -0.247 OA
HETATM    4  N   UNK N   1       1.834  -0.962  -0.658  0.00  0.00    -0.334 N 
HETATM    5  C   UNK N   1       1.703   0.063  -1.680  0.00  0.00     0.130 C 
HETATM    6  C   UNK N   1       2.468   1.330  -1.267  0.00  0.00     0.052 C 
HETATM    7  C   UNK N   1       3.896   0.953  -0.868  0.00  0.00     0.128 C 
HETATM    8  O   UNK N   1       4.723   2.093  -0.657  0.00  0.00    -0.385 OA
HETATM    9  C   UNK N   1       5.102   2.222   0.699  0.00  0.00     0.168 C 
HETATM   10  C   UNK N   1       5.936   1.012   1.157  0.00  0.00     0.027 C 
HETATM   11  C   UNK N   1       5.280  -0.320   0.761  0.00  0.00     0.011 C 
HETATM   12  C   UNK N   1       3.861  -0.072   0.279  0.00  0.00     0.033 C 
HETATM   13  C   UNK N   1       3.164  -1.327  -0.211  0.00  0.00     0.134 C 
HETATM   14  H   UNK N   1      -0.637  -0.530  -1.197  0.00  0.00     0.164 HD
ENDROOT
BRANCH   1  15
HETATM   15  C   UNK N   1      -1.663  -1.912   0.030  0.00  0.00     0.161 C 
BRANCH  15  16
HETATM   16  C   UNK N   1      -2.976  -1.253  -0.397  0.00  0.00     0.173 C 
BRANCH  16  17
HETATM   17  O   UNK N   1      -4.027  -2.117  -0.062  0.00  0.00    -0.384 OA
HETATM   18  C   UNK N   1      -4.262  -2.888  -1.203  0.00  0.00     0.202 C 
ENDBRANCH  16  17
BRANCH  16  19
HETATM   19  C   UNK N   1      -3.217   0.098   0.253  0.00  0.00    -0.006 A 
HETATM   20  C   UNK N   1      -2.318   0.595   1.216  0.00  0.00     0.011 A 
HETATM   21  C   UNK N   1      -2.537   1.828   1.831  0.00  0.00     0.001 A 
HETATM   22  C   UNK N   1      -3.658   2.585   1.494  0.00  0.00     0.002 A 
HETATM   23  C   UNK N   1      -4.559   2.111   0.539  0.00  0.00     0.024 A 
HETATM   24  C   UNK N   1      -4.348   0.876  -0.084  0.00  0.00     0.043 A 
HETATM   25 Cl   UNK N   1      -5.518   0.340  -1.282  0.00  0.00    -0.084 Cl
ENDBRANCH  16  19
ENDBRANCH  15  16
ENDBRANCH   1  15
TORSDOF 4
