REMARK  5 active torsions:
REMARK  status: ('A' for Active; 'I' for Inactive)
REMARK    1  A    between atoms: C_2  and  C_3 
REMARK    2  A    between atoms: C_3  and  O_4 
REMARK       I    between atoms: N_8  and  C_9 
REMARK    3  A    between atoms: C_11  and  C_9 
REMARK    4  A    between atoms: N_15  and  C_16 
REMARK    5  A    between atoms: C_16  and  C_17 
ROOT
HETATM    1  C   UNK N   1      -0.141   0.797  -0.412  0.00  0.00     0.105 C 
HETATM    2  C   UNK N   1      -0.115  -0.733  -0.575  0.00  0.00     0.118 C 
HETATM    3  C   UNK N   1       1.246  -0.919  -1.124  0.00  0.00     0.221 C 
HETATM    4  O   UNK N   1       1.637  -1.970  -1.606  0.00  0.00    -0.273 OA
HETATM    5  N   UNK N   1       2.003   0.185  -1.066  0.00  0.00    -0.345 N 
HETATM    6  C   UNK N   1       1.317   1.292  -0.473  0.00  0.00     0.140 C 
ENDROOT
BRANCH   1   7
HETATM    7  C   UNK N   1      -0.977   1.268   0.754  0.00  0.00     0.226 C 
HETATM    8  N   UNK N   1      -2.340   1.162   0.714  0.00  0.00    -0.351 N 
HETATM    9  C   UNK N   1      -3.144   1.648   1.828  0.00  0.00     0.126 C 
HETATM   10  C   UNK N   1      -2.999   0.619  -0.460  0.00  0.00     0.137 C 
HETATM   11  C   UNK N   1      -4.641   1.643   1.499  0.00  0.00     0.021 C 
HETATM   12  C   UNK N   1      -5.118   0.310   0.904  0.00  0.00     0.014 C 
HETATM   13  C   UNK N   1      -4.125  -0.346  -0.071  0.00  0.00    -0.006 C 
HETATM   14  C   UNK N   1      -4.871  -0.708  -1.338  0.00  0.00     0.019 C 
HETATM   15  O   UNK N   1      -0.428   1.781   1.718  0.00  0.00    -0.273 OA
BRANCH  13  16
HETATM   16  C   UNK N   1      -3.586  -1.647   0.525  0.00  0.00     0.175 C 
BRANCH  16  17
HETATM   17  O   UNK N   1      -2.991  -1.444   1.772  0.00  0.00    -0.400 OA
HETATM   18  H   UNK N   1      -2.233  -0.848   1.675  0.00  0.00     0.209 HD
ENDBRANCH  16  17
ENDBRANCH  13  16
ENDBRANCH   1   7
BRANCH   5  19
HETATM   19  C   UNK N   1       3.329   0.304  -1.631  0.00  0.00     0.190 C 
BRANCH  19  20
HETATM   20  C   UNK N   1       4.362  -0.371  -0.794  0.00  0.00     0.070 A 
HETATM   21  C   UNK N   1       4.810  -1.663  -0.950  0.00  0.00     0.036 A 
HETATM   22  C   UNK N   1       5.812  -1.818  -0.010  0.00  0.00     0.027 A 
HETATM   23  C   UNK N   1       5.919  -0.604   0.650  0.00  0.00     0.142 A 
HETATM   24  O   UNK N   1       5.042   0.231   0.147  0.00  0.00    -0.325 OA
ENDBRANCH  19  20
ENDBRANCH   5  19
TORSDOF 5
