REMARK  4 active torsions:
REMARK  status: ('A' for Active; 'I' for Inactive)
REMARK    1  A    between atoms: C_3  and  C_2 
REMARK       I    between atoms: N_11  and  C_12 
REMARK    2  A    between atoms: C_12  and  C_14 
REMARK    3  A    between atoms: C_14  and  N_15 
REMARK    4  A    between atoms: C_19  and  C_21 
ROOT
HETATM    1  N   UNK N   1       0.713  -0.836  -0.426  0.00  0.00    -0.259 N 
HETATM    2  C   UNK N   1       1.423  -1.953  -0.599  0.00  0.00     0.326 A 
HETATM    3  O   UNK N   1       1.044  -2.906  -1.261  0.00  0.00    -0.247 OA
HETATM    4  N   UNK N   1       2.586  -1.942   0.086  0.00  0.00    -0.321 N 
HETATM    5  C   UNK N   1       2.689  -0.695   0.838  0.00  0.00     0.140 A 
HETATM    6  C   UNK N   1       2.545  -1.000   2.327  0.00  0.00     0.054 C 
HETATM    7  C   UNK N   1       1.417  -0.019   0.374  0.00  0.00     0.261 A 
HETATM    8  O   UNK N   1       1.024   1.081   0.734  0.00  0.00    -0.270 OA
HETATM    9  H   UNK N   1       3.258  -2.662   0.079  0.00  0.00     0.165 HD
ENDROOT
BRANCH   1  10
HETATM   10  C   UNK N   1      -0.639  -0.604  -0.904  0.00  0.00     0.239 C 
BRANCH  10  11
HETATM   11  C   UNK N   1      -1.619  -0.751   0.253  0.00  0.00     0.239 C 
HETATM   12  N   UNK N   1      -2.960  -0.546   0.095  0.00  0.00    -0.339 N 
HETATM   13  C   UNK N   1      -3.839  -0.666   1.273  0.00  0.00     0.147 C 
HETATM   14  C   UNK N   1      -3.510  -0.148  -1.200  0.00  0.00     0.137 C 
HETATM   15  C   UNK N   1      -5.258  -0.095   1.053  0.00  0.00     0.148 C 
HETATM   16  N   UNK N   1      -5.182   1.032   0.133  0.00  0.00    -0.357 N 
HETATM   17  C   UNK N   1      -5.790   2.223   0.204  0.00  0.00     0.091 A 
HETATM   18  C   UNK N   1      -4.377   1.032  -0.927  0.00  0.00     0.034 A 
HETATM   19  C   UNK N   1      -5.356   3.005  -0.862  0.00  0.00     0.019 A 
HETATM   20  C   UNK N   1      -4.436   2.242  -1.580  0.00  0.00     0.028 A 
HETATM   21  O   UNK N   1      -1.189  -1.068   1.355  0.00  0.00    -0.271 OA
BRANCH  14  22
HETATM   22  C   UNK N   1      -4.394  -1.267  -1.752  0.00  0.00     0.027 C 
HETATM   23  C   UNK N   1      -3.584  -2.512  -2.057  0.00  0.00     0.007 C 
ENDBRANCH  14  22
ENDBRANCH  10  11
ENDBRANCH   1  10
BRANCH   5  24
HETATM   24  C   UNK N   1       3.976   0.053   0.527  0.00  0.00    -0.021 A 
HETATM   25  C   UNK N   1       4.865   0.392   1.565  0.00  0.00     0.013 A 
HETATM   26  C   UNK N   1       6.062   1.054   1.297  0.00  0.00     0.043 A 
HETATM   27  C   UNK N   1       6.393   1.386  -0.015  0.00  0.00     0.116 A 
HETATM   28  F   UNK N   1       7.560   2.026  -0.272  0.00  0.00    -0.206 F 
HETATM   29  C   UNK N   1       5.521   1.059  -1.060  0.00  0.00     0.043 A 
HETATM   30  C   UNK N   1       4.316   0.394  -0.792  0.00  0.00     0.013 A 
ENDBRANCH   5  24
TORSDOF 4
