REMARK  9 active torsions:
REMARK  status: ('A' for Active; 'I' for Inactive)
REMARK    1  A    between atoms: C_2  and  O_1 
REMARK    2  A    between atoms: C_2  and  C_3 
REMARK    3  A    between atoms: C_2  and  C_18 
REMARK    4  A    between atoms: C_3  and  N_4 
REMARK    5  A    between atoms: N_4  and  C_5 
REMARK    6  A    between atoms: C_5  and  C_6 
REMARK    7  A    between atoms: C_18  and  O_19 
REMARK    8  A    between atoms: O_19  and  C_20 
REMARK    9  A    between atoms: C_23  and  C_24 
ROOT
HETATM    1  C   UNK N   1       0.786  -1.439  -0.204  0.00  0.00     0.303 C 
ENDROOT
BRANCH   1   2
HETATM    2  C   UNK N   1      -0.106  -2.069  -1.275  0.00  0.00     0.170 C 
BRANCH   2   3
HETATM    3  O   UNK N   1      -0.003  -1.410  -2.502  0.00  0.00    -0.392 OA
HETATM    4  H   UNK N   1       0.930  -1.351  -2.761  0.00  0.00     0.210 HD
ENDBRANCH   2   3
BRANCH   2   5
HETATM    5  C   UNK N   1      -1.559  -2.181  -0.835  0.00  0.00     0.209 C 
BRANCH   5   6
HETATM    6  O   UNK N   1      -2.017  -0.984  -0.328  0.00  0.00    -0.349 OA
BRANCH   6   7
HETATM    7  C   UNK N   1      -3.324  -0.640  -0.299  0.00  0.00     0.068 A 
HETATM    8  C   UNK N   1      -3.696   0.534   0.360  0.00  0.00     0.037 A 
HETATM    9  C   UNK N   1      -5.036   0.926   0.402  0.00  0.00     0.019 A 
HETATM   10  C   UNK N   1      -6.021   0.149  -0.223  0.00  0.00     0.048 A 
HETATM   11  C   UNK N   1      -5.651  -1.030  -0.884  0.00  0.00     0.019 A 
HETATM   12  C   UNK N   1      -4.311  -1.427  -0.920  0.00  0.00     0.037 A 
BRANCH  10  13
HETATM   13  C   UNK N   1      -7.460   0.574  -0.198  0.00  0.00     0.417 C 
HETATM   14  F   UNK N   1      -7.620   1.751   0.514  0.00  0.00    -0.166 F 
HETATM   15  F   UNK N   1      -7.903   0.776  -1.493  0.00  0.00    -0.166 F 
HETATM   16  F   UNK N   1      -8.226  -0.412   0.395  0.00  0.00    -0.166 F 
ENDBRANCH  10  13
ENDBRANCH   6   7
ENDBRANCH   5   6
ENDBRANCH   2   5
ENDBRANCH   1   2
BRANCH   1  17
HETATM   17  N   UNK N   1       1.142  -0.055  -0.513  0.00  0.00     0.090 N 
HETATM   18  H   UNK N   1       0.307   0.526  -0.581  0.00  0.00     0.316 HD
BRANCH  17  19
HETATM   19  C   UNK N   1       2.010   0.410   0.564  0.00  0.00     0.310 C 
BRANCH  19  20
HETATM   20  C   UNK N   1       3.452   0.037   0.333  0.00  0.00    -0.003 A 
HETATM   21  C   UNK N   1       3.777  -1.285  -0.004  0.00  0.00     0.014 A 
HETATM   22  C   UNK N   1       5.105  -1.671  -0.185  0.00  0.00     0.044 A 
HETATM   23  C   UNK N   1       6.134  -0.747  -0.015  0.00  0.00     0.128 A 
HETATM   24  F   UNK N   1       7.421  -1.146  -0.177  0.00  0.00    -0.205 F 
HETATM   25  C   UNK N   1       5.834   0.578   0.333  0.00  0.00     0.030 A 
HETATM   26  C   UNK N   1       6.853   1.512   0.526  0.00  0.00     0.018 A 
HETATM   27  C   UNK N   1       4.486   0.977   0.504  0.00  0.00     0.053 A 
HETATM   28  C   UNK N   1       6.534   2.822   0.884  0.00  0.00     0.018 A 
HETATM   29  C   UNK N   1       5.194   3.184   1.043  0.00  0.00     0.088 A 
HETATM   30  N   UNK N   1       4.207   2.267   0.854  0.00  0.00    -0.365 N 
ATOM     31  HN  UNK N   1       3.234   2.550   0.976  1.00  0.00     0.165 HD
ENDBRANCH  19  20
ENDBRANCH  17  19
ENDBRANCH   1  17
TORSDOF 9
