REMARK  2 active torsions:
REMARK  status: ('A' for Active; 'I' for Inactive)
REMARK    1  A    between atoms: C_5  and  C_6 
REMARK       I    between atoms: C_6  and  N_8 
REMARK    2  A    between atoms: N_11  and  C_12 
ROOT
HETATM    1  C   UNK N   1       2.913   0.422  -0.038  0.00  0.00     0.051 A 
HETATM    2  C   UNK N   1       3.538   1.066   1.048  0.00  0.00     0.031 A 
HETATM    3  C   UNK N   1       4.914   1.221   1.104  0.00  0.00     0.002 A 
HETATM    4  C   UNK N   1       5.704   0.732   0.071  0.00  0.00     0.002 A 
HETATM    5  C   UNK N   1       5.116   0.089  -1.018  0.00  0.00     0.025 A 
HETATM    6  C   UNK N   1       3.731  -0.073  -1.089  0.00  0.00     0.071 A 
HETATM    7  C   UNK N   1       3.193  -0.746  -2.238  0.00  0.00     0.102 C 
HETATM    8  N   UNK N   1       2.720  -1.283  -3.147  0.00  0.00    -0.191 NA
ENDROOT
BRANCH   1   9
HETATM    9  N   UNK N   1       1.485   0.310  -0.015  0.00  0.00    -0.377 N 
HETATM   10  C   UNK N   1       0.801   0.855   1.132  0.00  0.00     0.143 C 
HETATM   11  C   UNK N   1      -0.117  -0.190   1.649  0.00  0.00     0.145 C 
HETATM   12  N   UNK N   1      -1.090  -0.348   0.617  0.00  0.00    -0.347 N 
HETATM   13  C   UNK N   1      -2.360   0.059   0.869  0.00  0.00     0.249 C 
HETATM   14  C   UNK N   1      -0.654  -0.881  -0.664  0.00  0.00     0.145 C 
HETATM   15  O   UNK N   1      -2.638   0.566   1.945  0.00  0.00    -0.270 OA
HETATM   16  C   UNK N   1       0.701  -0.271  -1.107  0.00  0.00     0.143 C 
BRANCH  13  17
HETATM   17  C   UNK N   1      -3.435  -0.125  -0.105  0.00  0.00     0.214 C 
HETATM   18  C   UNK N   1      -3.903  -1.546  -0.080  0.00  0.00     0.044 C 
HETATM   19  C   UNK N   1      -5.257  -1.383  -0.717  0.00  0.00     0.034 C 
HETATM   20  C   UNK N   1      -5.510   0.118  -0.635  0.00  0.00     0.118 C 
HETATM   21  C   UNK N   1      -5.290   0.793  -1.991  0.00  0.00     0.039 C 
HETATM   22  O   UNK N   1      -4.563   0.615   0.257  0.00  0.00    -0.372 OA
ENDBRANCH  13  17
ENDBRANCH   1   9
TORSDOF 2
