REMARK  5 active torsions:
REMARK  status: ('A' for Active; 'I' for Inactive)
REMARK    1  A    between atoms: C_2  and  C_3 
REMARK    2  A    between atoms: C_2  and  N_20 
REMARK       I    between atoms: C_3  and  N_5 
REMARK    3  A    between atoms: C_12  and  C_13 
REMARK    4  A    between atoms: C_24  and  C_26 
REMARK    5  A    between atoms: C_26  and  O_27 
ROOT
HETATM    1  C   UNK N   1      -0.827  -0.087  -0.437  0.00  0.00     0.258 C 
HETATM    2  O   UNK N   1      -0.715   0.950  -1.075  0.00  0.00    -0.271 OA
HETATM    3  N   UNK N   1       0.271  -0.665   0.175  0.00  0.00    -0.305 N 
HETATM    4  C   UNK N   1       0.048  -1.891   0.938  0.00  0.00     0.235 C 
HETATM    5  C   UNK N   1       1.281  -2.629   1.368  0.00  0.00     0.240 C 
HETATM    6  O   UNK N   1       1.161  -3.697   1.943  0.00  0.00    -0.271 OA
HETATM    7  N   UNK N   1       2.514  -2.142   1.125  0.00  0.00    -0.324 N 
HETATM    8  C   UNK N   1       2.713  -0.906   0.477  0.00  0.00     0.062 A 
HETATM    9  C   UNK N   1       4.020  -0.464   0.265  0.00  0.00     0.048 A 
HETATM   10  C   UNK N   1       4.268   0.748  -0.382  0.00  0.00     0.050 A 
HETATM   11  C   UNK N   1       3.189   1.530  -0.808  0.00  0.00     0.018 A 
HETATM   12  C   UNK N   1       1.878   1.084  -0.614  0.00  0.00     0.033 A 
HETATM   13  C   UNK N   1       1.615  -0.146   0.023  0.00  0.00     0.064 A 
HETATM   14  H   UNK N   1       3.298  -2.665   1.408  0.00  0.00     0.169 HD
ENDROOT
BRANCH   1  15
HETATM   15  C   UNK N   1      -2.194  -0.773  -0.390  0.00  0.00     0.310 C 
HETATM   16  C   UNK N   1      -2.044  -2.132  -1.085  0.00  0.00     0.053 C 
BRANCH  15  17
HETATM   17  N   UNK N   1      -3.258   0.025  -1.040  0.00  0.00     0.102 N 
HETATM   18  C   UNK N   1      -4.470  -0.777  -1.304  0.00  0.00     0.273 C 
HETATM   19  C   UNK N   1      -5.145  -1.255  -0.010  0.00  0.00     0.031 C 
HETATM   20  C   UNK N   1      -5.186  -0.165   1.066  0.00  0.00     0.015 C 
HETATM   21  C   UNK N   1      -4.904   1.230   0.502  0.00  0.00     0.004 C 
HETATM   22  C   UNK N   1      -6.019   1.641  -0.451  0.00  0.00     0.019 C 
HETATM   23  C   UNK N   1      -3.547   1.232  -0.232  0.00  0.00     0.284 C 
BRANCH  21  24
HETATM   24  C   UNK N   1      -4.878   2.253   1.629  0.00  0.00     0.175 C 
BRANCH  24  25
HETATM   25  O   UNK N   1      -3.868   1.964   2.550  0.00  0.00    -0.400 OA
HETATM   26  H   UNK N   1      -4.033   1.095   2.950  0.00  0.00     0.209 HD
ENDBRANCH  24  25
ENDBRANCH  21  24
ENDBRANCH  15  17
ENDBRANCH   1  15
BRANCH  10  27
HETATM   27  C   UNK N   1       5.686   1.174  -0.632  0.00  0.00     0.417 C 
HETATM   28  F   UNK N   1       5.736   2.410  -1.253  0.00  0.00    -0.166 F 
HETATM   29  F   UNK N   1       6.304   0.243  -1.448  0.00  0.00    -0.166 F 
HETATM   30  F   UNK N   1       6.372   1.247   0.566  0.00  0.00    -0.166 F 
ENDBRANCH  10  27
TORSDOF 5
