REMARK  4 active torsions:
REMARK  status: ('A' for Active; 'I' for Inactive)
REMARK    1  A    between atoms: C_2  and  O_3 
REMARK    2  A    between atoms: C_2  and  C_11 
REMARK    3  A    between atoms: O_3  and  C_4 
REMARK       I    between atoms: N_14  and  C_15 
REMARK    4  A    between atoms: C_15  and  C_17 
ROOT
HETATM    1  C   UNK N   1      -0.566  -1.716  -0.210  0.00  0.00     0.089 C 
HETATM    2  C   UNK N   1      -0.069  -1.636   1.241  0.00  0.00     0.034 C 
HETATM    3  C   UNK N   1       0.554  -0.275   1.507  0.00  0.00     0.127 C 
HETATM    4  N   UNK N   1       1.724  -0.136   0.660  0.00  0.00    -0.347 N 
HETATM    5  C   UNK N   1       2.903   0.292   1.212  0.00  0.00     0.270 C 
HETATM    6  O   UNK N   1       2.934   0.568   2.405  0.00  0.00    -0.266 OA
HETATM    7  C   UNK N   1       1.614  -0.488  -0.751  0.00  0.00     0.127 C 
HETATM    8  C   UNK N   1       0.169  -0.764  -1.168  0.00  0.00     0.034 C 
ENDROOT
BRANCH   1   9
HETATM    9  C   UNK N   1      -2.023  -1.397  -0.257  0.00  0.00     0.268 C 
HETATM   10  O   UNK N   1      -2.805  -2.232  -0.688  0.00  0.00    -0.264 OA
BRANCH   9  11
HETATM   11  O   UNK N   1      -2.463  -0.184   0.171  0.00  0.00    -0.277 OA
BRANCH  11  12
HETATM   12  C   UNK N   1      -3.768   0.163   0.155  0.00  0.00     0.100 A 
HETATM   13  C   UNK N   1      -4.580  -0.131   1.258  0.00  0.00     0.039 A 
HETATM   14  C   UNK N   1      -5.934   0.217   1.245  0.00  0.00     0.003 A 
HETATM   15  C   UNK N   1      -6.480   0.859   0.130  0.00  0.00     0.002 A 
HETATM   16  C   UNK N   1      -5.671   1.160  -0.970  0.00  0.00     0.026 A 
HETATM   17  C   UNK N   1      -4.316   0.816  -0.961  0.00  0.00     0.068 A 
HETATM   18 Cl   UNK N   1      -3.320   1.201  -2.354  0.00  0.00    -0.081 Cl
ENDBRANCH  11  12
ENDBRANCH   9  11
ENDBRANCH   1   9
BRANCH   5  19
HETATM   19  C   UNK N   1       4.165   0.454   0.425  0.00  0.00     0.100 A 
HETATM   20  C   UNK N   1       5.320   0.918   1.069  0.00  0.00     0.035 A 
HETATM   21  C   UNK N   1       6.502   1.074   0.345  0.00  0.00     0.004 A 
HETATM   22  C   UNK N   1       6.526   0.767  -1.014  0.00  0.00     0.017 A 
HETATM   23  C   UNK N   1       5.363   0.307  -1.630  0.00  0.00     0.088 A 
HETATM   24  N   UNK N   1       4.221   0.162  -0.906  0.00  0.00    -0.361 N 
ATOM     25  HN  UNK N   1       3.379  -0.175  -1.374  1.00  0.00     0.165 HD
ENDBRANCH   5  19
TORSDOF 4
