REMARK  4 active torsions:
REMARK  status: ('A' for Active; 'I' for Inactive)
REMARK    1  A    between atoms: C_2  and  O_3 
REMARK    2  A    between atoms: C_11  and  C_2 
REMARK    3  A    between atoms: O_3  and  C_4 
REMARK       I    between atoms: N_16  and  C_17 
REMARK    4  A    between atoms: C_17  and  C_19 
ROOT
HETATM    1  C   UNK N   1       0.068   1.437   0.845  0.00  0.00     0.187 C 
HETATM    2  C   UNK N   1       0.513   2.873   0.535  0.00  0.00     0.036 C 
HETATM    3  C   UNK N   1      -0.635   3.855   0.768  0.00  0.00     0.004 C 
HETATM    4  C   UNK N   1      -1.922   3.456   0.028  0.00  0.00     0.020 C 
HETATM    5  C   UNK N   1      -1.803   2.105  -0.677  0.00  0.00     0.127 C 
HETATM    6  N   UNK N   1      -1.224   1.125   0.224  0.00  0.00    -0.334 N 
HETATM    7  C   UNK N   1      -1.835  -0.084   0.487  0.00  0.00     0.256 C 
HETATM    8  O   UNK N   1      -1.320  -0.841   1.300  0.00  0.00    -0.267 OA
ENDROOT
BRANCH   1   9
HETATM    9  C   UNK N   1       1.140   0.500   0.342  0.00  0.00     0.287 C 
HETATM   10  O   UNK N   1       0.876  -0.321  -0.530  0.00  0.00    -0.262 OA
BRANCH   9  11
HETATM   11  O   UNK N   1       2.401   0.583   0.837  0.00  0.00    -0.276 OA
BRANCH  11  12
HETATM   12  C   UNK N   1       3.391  -0.202   0.359  0.00  0.00     0.101 A 
HETATM   13  C   UNK N   1       4.186   0.260  -0.695  0.00  0.00     0.039 A 
HETATM   14  C   UNK N   1       5.185  -0.556  -1.230  0.00  0.00     0.003 A 
HETATM   15  C   UNK N   1       5.393  -1.837  -0.712  0.00  0.00     0.002 A 
HETATM   16  C   UNK N   1       4.605  -2.301   0.346  0.00  0.00     0.026 A 
HETATM   17  C   UNK N   1       3.604  -1.488   0.885  0.00  0.00     0.068 A 
HETATM   18 Cl   UNK N   1       2.616  -2.099   2.202  0.00  0.00    -0.081 Cl
ENDBRANCH  11  12
ENDBRANCH   9  11
ENDBRANCH   1   9
BRANCH   7  19
HETATM   19  C   UNK N   1      -3.079  -0.558  -0.205  0.00  0.00     0.047 A 
HETATM   20  C   UNK N   1      -3.750   0.195  -1.177  0.00  0.00     0.020 A 
HETATM   21  C   UNK N   1      -4.869  -0.321  -1.828  0.00  0.00     0.018 A 
HETATM   22  C   UNK N   1      -5.313  -1.603  -1.506  0.00  0.00     0.087 A 
HETATM   23  N   UNK N   1      -4.660  -2.333  -0.564  0.00  0.00    -0.374 N 
HETATM   24  C   UNK N   1      -3.568  -1.844   0.083  0.00  0.00     0.104 A 
ATOM     25  HN  UNK N   1      -4.997  -3.268  -0.336  1.00  0.00     0.164 HD
ENDBRANCH   7  19
TORSDOF 4
