REMARK  4 active torsions:
REMARK  status: ('A' for Active; 'I' for Inactive)
REMARK    1  A    between atoms: C_4  and  C_5 
REMARK    2  A    between atoms: C_7  and  C_8 
REMARK       I    between atoms: C_8  and  N_10 
REMARK    3  A    between atoms: C_14  and  C_16 
REMARK    4  A    between atoms: C_16  and  O_17 
ROOT
HETATM    1  C   UNK N   1       2.293  -0.370  -0.309  0.00  0.00     0.048 A 
HETATM    2  C   UNK N   1       1.232   0.332   0.328  0.00  0.00     0.048 A 
HETATM    3  C   UNK N   1       0.096  -0.371   0.782  0.00  0.00     0.051 A 
HETATM    4  C   UNK N   1       0.073  -1.750   0.578  0.00  0.00     0.057 A 
HETATM    5  C   UNK N   1      -0.821  -2.758   0.864  0.00  0.00     0.044 A 
HETATM    6  C   UNK N   1      -2.142  -2.631   1.539  0.00  0.00     0.071 C 
HETATM    7  N   UNK N   1      -0.300  -3.929   0.426  0.00  0.00    -0.263 N 
ATOM      8  HN  UNK N   1      -0.734  -4.848   0.499  1.00  0.00     0.194 HD
HETATM    9  O   UNK N   1       0.864  -3.663  -0.109  0.00  0.00    -0.219 OA
HETATM   10  C   UNK N   1       1.110  -2.379  -0.033  0.00  0.00     0.184 A 
HETATM   11  N   UNK N   1       2.208  -1.727  -0.477  0.00  0.00    -0.334 N 
ATOM     12  HN  UNK N   1       2.964  -2.239  -0.932  1.00  0.00     0.168 HD
ENDROOT
BRANCH   3  13
HETATM   13  C   UNK N   1      -1.023   0.335   1.438  0.00  0.00     0.255 C 
HETATM   14  O   UNK N   1      -0.985   0.498   2.650  0.00  0.00    -0.267 OA
HETATM   15  N   UNK N   1      -2.086   0.792   0.715  0.00  0.00    -0.347 N 
HETATM   16  C   UNK N   1      -2.137   0.582  -0.721  0.00  0.00     0.126 C 
HETATM   17  C   UNK N   1      -3.186   1.482   1.383  0.00  0.00     0.137 C 
HETATM   18  C   UNK N   1      -3.478  -0.039  -1.111  0.00  0.00     0.021 C 
HETATM   19  C   UNK N   1      -4.679   0.687  -0.475  0.00  0.00     0.014 C 
HETATM   20  C   UNK N   1      -4.298   1.893   0.402  0.00  0.00    -0.006 C 
HETATM   21  C   UNK N   1      -3.813   3.039  -0.473  0.00  0.00     0.019 C 
BRANCH  20  22
HETATM   22  C   UNK N   1      -5.521   2.401   1.158  0.00  0.00     0.175 C 
BRANCH  22  23
HETATM   23  O   UNK N   1      -6.078   1.405   1.963  0.00  0.00    -0.400 OA
HETATM   24  H   UNK N   1      -6.373   0.667   1.407  0.00  0.00     0.209 HD
ENDBRANCH  22  23
ENDBRANCH  20  22
ENDBRANCH   3  13
BRANCH   1  25
HETATM   25  C   UNK N   1       3.487   0.354  -0.791  0.00  0.00     0.022 A 
HETATM   26  C   UNK N   1       3.713   1.717  -0.692  0.00  0.00     0.048 A 
HETATM   27  C   UNK N   1       4.952   1.911  -1.277  0.00  0.00     0.050 A 
HETATM   28  C   UNK N   1       5.645   3.219  -1.418  0.00  0.00     0.076 C 
HETATM   29  O   UNK N   1       5.448   0.771  -1.699  0.00  0.00    -0.319 OA
HETATM   30  C   UNK N   1       4.596  -0.185  -1.424  0.00  0.00     0.062 A 
HETATM   31  C   UNK N   1       4.832  -1.617  -1.761  0.00  0.00     0.077 C 
ENDBRANCH   1  25
TORSDOF 4
