REMARK  6 active torsions:
REMARK  status: ('A' for Active; 'I' for Inactive)
REMARK    1  A    between atoms: C_2  and  N_3 
REMARK    2  A    between atoms: N_3  and  S_4 
REMARK    3  A    between atoms: S_4  and  C_7 
REMARK    4  A    between atoms: C_11  and  C_12 
REMARK       I    between atoms: C_12  and  N_14 
REMARK    5  A    between atoms: C_18  and  C_20 
REMARK    6  A    between atoms: C_20  and  O_21 
ROOT
HETATM    1  C   UNK N   1       2.700   0.169   0.677  0.00  0.00     0.075 A 
HETATM    2  C   UNK N   1       2.672   1.552   0.492  0.00  0.00     0.025 A 
HETATM    3  C   UNK N   1       1.470   2.192   0.208  0.00  0.00     0.003 A 
HETATM    4  C   UNK N   1       0.295   1.448   0.105  0.00  0.00     0.017 A 
HETATM    5  C   UNK N   1       0.297   0.055   0.284  0.00  0.00     0.033 A 
HETATM    6  C   UNK N   1       1.520  -0.578   0.572  0.00  0.00     0.041 A 
ENDROOT
BRANCH   5   7
HETATM    7  C   UNK N   1      -0.956  -0.772   0.191  0.00  0.00     0.253 C 
HETATM    8  O   UNK N   1      -0.859  -1.977   0.392  0.00  0.00    -0.267 OA
HETATM    9  N   UNK N   1      -2.195  -0.245  -0.094  0.00  0.00    -0.347 N 
HETATM   10  C   UNK N   1      -2.388   1.168  -0.370  0.00  0.00     0.126 C 
HETATM   11  C   UNK N   1      -3.360  -1.127  -0.134  0.00  0.00     0.137 C 
HETATM   12  C   UNK N   1      -3.169   1.348  -1.668  0.00  0.00     0.021 C 
HETATM   13  C   UNK N   1      -4.452   0.499  -1.693  0.00  0.00     0.014 C 
HETATM   14  C   UNK N   1      -4.659  -0.365  -0.437  0.00  0.00    -0.006 C 
HETATM   15  C   UNK N   1      -5.768  -1.365  -0.704  0.00  0.00     0.019 C 
BRANCH  14  16
HETATM   16  C   UNK N   1      -5.038   0.489   0.778  0.00  0.00     0.175 C 
BRANCH  16  17
HETATM   17  O   UNK N   1      -6.167   1.270   0.520  0.00  0.00    -0.400 OA
HETATM   18  H   UNK N   1      -5.980   1.879  -0.211  0.00  0.00     0.209 HD
ENDBRANCH  16  17
ENDBRANCH  14  16
ENDBRANCH   5   7
BRANCH   1  19
HETATM   19  S   UNK N   1       4.260  -0.637   1.003  0.00  0.00     0.241 S 
HETATM   20  O   UNK N   1       4.111  -1.913   1.845  0.00  0.00    -0.206 OA
HETATM   21  O   UNK N   1       5.205   0.210   1.870  0.00  0.00    -0.206 OA
BRANCH  19  22
HETATM   22  N   UNK N   1       5.217  -1.118  -0.400  0.00  0.00    -0.216 NA
HETATM   23  H   UNK N   1       6.147  -1.423  -0.115  0.00  0.00     0.139 HD
BRANCH  22  24
HETATM   24  C   UNK N   1       5.300   0.042  -1.271  0.00  0.00     0.100 C 
HETATM   25  C   UNK N   1       5.964  -0.346  -2.574  0.00  0.00     0.021 C 
ENDBRANCH  22  24
ENDBRANCH  19  22
ENDBRANCH   1  19
TORSDOF 6
