REMARK  6 active torsions:
REMARK  status: ('A' for Active; 'I' for Inactive)
REMARK    1  A    between atoms: C_2  and  C_3 
REMARK       I    between atoms: C_2  and  N_14 
REMARK    2  A    between atoms: C_6  and  O_7 
REMARK    3  A    between atoms: O_7  and  C_8 
REMARK    4  A    between atoms: C_17  and  S_18 
REMARK    5  A    between atoms: S_18  and  N_21 
REMARK    6  A    between atoms: N_21  and  C_22 
ROOT
HETATM    1  O   UNK N   1      -0.077  -1.818   1.953  0.00  0.00    -0.267 OA
HETATM    2  C   UNK N   1       0.017  -1.176   0.917  0.00  0.00     0.253 C 
HETATM    3  N   UNK N   1      -1.128  -0.781   0.271  0.00  0.00    -0.347 N 
HETATM    4  C   UNK N   1      -1.146  -0.164  -1.021  0.00  0.00     0.127 C 
HETATM    5  C   UNK N   1      -2.475  -0.577  -1.612  0.00  0.00     0.043 C 
HETATM    6  C   UNK N   1      -3.370  -0.892  -0.420  0.00  0.00     0.143 C 
HETATM    7  C   UNK N   1      -2.431  -1.153   0.754  0.00  0.00     0.147 C 
ENDROOT
BRANCH   2   8
HETATM    8  C   UNK N   1       1.391  -0.899   0.381  0.00  0.00     0.032 A 
HETATM    9  C   UNK N   1       2.493  -1.560   0.949  0.00  0.00     0.020 A 
HETATM   10  C   UNK N   1       3.784  -1.348   0.454  0.00  0.00     0.038 A 
HETATM   11  C   UNK N   1       3.995  -0.451  -0.595  0.00  0.00     0.078 A 
HETATM   12  C   UNK N   1       2.907   0.224  -1.159  0.00  0.00     0.038 A 
HETATM   13  C   UNK N   1       1.617  -0.007  -0.679  0.00  0.00     0.020 A 
BRANCH  11  14
HETATM   14  O   UNK N   1       5.243  -0.248  -1.066  0.00  0.00    -0.255 OA
BRANCH  14  15
HETATM   15  C   UNK N   1       5.945   0.913  -0.815  0.00  0.00     0.530 C 
HETATM   16  F   UNK N   1       6.219   1.001   0.539  0.00  0.00    -0.144 F 
HETATM   17  F   UNK N   1       7.136   0.882  -1.512  0.00  0.00    -0.144 F 
HETATM   18  F   UNK N   1       5.221   2.025  -1.210  0.00  0.00    -0.144 F 
ENDBRANCH  14  15
ENDBRANCH  11  14
ENDBRANCH   2   8
BRANCH   6  19
HETATM   19  S   UNK N   1      -4.464   0.525  -0.113  0.00  0.00     0.215 S 
HETATM   20  O   UNK N   1      -5.242   0.878  -1.390  0.00  0.00    -0.211 OA
HETATM   21  O   UNK N   1      -3.748   1.853   0.186  0.00  0.00    -0.211 OA
BRANCH  19  22
HETATM   22  N   UNK N   1      -5.752   0.319   1.090  0.00  0.00    -0.215 NA
HETATM   23  H   UNK N   1      -5.771  -0.644   1.426  0.00  0.00     0.140 HD
BRANCH  22  24
HETATM   24  C   UNK N   1      -5.539   1.234   2.200  0.00  0.00     0.071 A 
HETATM   25  C   UNK N   1      -4.555   0.632   3.184  0.00  0.00     0.022 A 
HETATM   26  C   UNK N   1      -6.039   0.587   3.474  0.00  0.00     0.022 A 
ENDBRANCH  22  24
ENDBRANCH  19  22
ENDBRANCH   6  19
TORSDOF 6
