REMARK  5 active torsions:
REMARK  status: ('A' for Active; 'I' for Inactive)
REMARK       I    between atoms: C_2  and  N_4 
REMARK    1  A    between atoms: C_13  and  C_14 
REMARK    2  A    between atoms: C_14  and  C_15 
REMARK       I    between atoms: C_15  and  N_17 
REMARK    3  A    between atoms: N_17  and  C_18 
REMARK    4  A    between atoms: N_17  and  C_27 
REMARK    5  A    between atoms: C_18  and  C_19 
ROOT
HETATM    1  C   UNK N   1       0.537  -0.223   0.038  0.00  0.00     0.223 C 
HETATM    2  O   UNK N   1       0.636  -0.529   1.220  0.00  0.00    -0.273 OA
HETATM    3  N   UNK N   1       1.162  -0.983  -0.922  0.00  0.00    -0.336 N 
ENDROOT
BRANCH   1   4
HETATM    4  C   UNK N   1      -0.292   0.982  -0.336  0.00  0.00     0.133 C 
BRANCH   4   5
HETATM    5  C   UNK N   1      -1.430   1.306   0.649  0.00  0.00     0.134 C 
HETATM    6  C   UNK N   1      -2.453   0.214   0.883  0.00  0.00    -0.024 A 
HETATM    7  C   UNK N   1      -2.296  -1.093   0.398  0.00  0.00     0.010 A 
HETATM    8  C   UNK N   1      -3.583   0.533   1.657  0.00  0.00    -0.026 A 
HETATM    9  C   UNK N   1      -3.249  -2.071   0.691  0.00  0.00     0.001 A 
HETATM   10  C   UNK N   1      -4.359  -1.753   1.479  0.00  0.00     0.001 A 
HETATM   11  C   UNK N   1      -4.530  -0.450   1.956  0.00  0.00     0.012 A 
HETATM   12  C   UNK N   1      -3.805   1.931   2.076  0.00  0.00     0.029 C 
HETATM   13  C   UNK N   1      -3.112   2.916   1.479  0.00  0.00     0.095 C 
HETATM   14  N   UNK N   1      -2.104   2.607   0.508  0.00  0.00    -0.319 N 
HETATM   15  C   UNK N   1      -1.836   3.516  -0.489  0.00  0.00     0.220 C 
HETATM   16  C   UNK N   1      -2.601   4.801  -0.581  0.00  0.00     0.117 C 
HETATM   17  O   UNK N   1      -0.990   3.295  -1.340  0.00  0.00    -0.273 OA
ENDBRANCH   4   5
ENDBRANCH   1   4
BRANCH   3  18
HETATM   18  C   UNK N   1       1.894  -2.168  -0.501  0.00  0.00     0.212 C 
BRANCH  18  19
HETATM   19  C   UNK N   1       3.290  -1.839  -0.084  0.00  0.00     0.158 A 
HETATM   20  N   UNK N   1       3.847  -0.612  -0.120  0.00  0.00    -0.280 N 
HETATM   21  N   UNK N   1       5.090  -0.749   0.312  0.00  0.00    -0.282 N 
ATOM     22  HN  UNK N   1       3.397   0.253  -0.422  1.00  0.00     0.189 HD
HETATM   23  C   UNK N   1       5.254  -2.054   0.597  0.00  0.00     0.136 A 
ATOM     24  HN  UNK N   1       5.787  -0.011   0.409  1.00  0.00     0.189 HD
HETATM   25  C   UNK N   1       6.513  -2.653   1.111  0.00  0.00     0.099 C 
HETATM   26  O   UNK N   1       4.153  -2.721   0.354  0.00  0.00    -0.281 OA
ENDBRANCH  18  19
ENDBRANCH   3  18
BRANCH   3  27
HETATM   27  C   UNK N   1       1.084  -0.645  -2.355  0.00  0.00     0.025 C 
HETATM   28  C   UNK N   1       1.870  -1.616  -3.230  0.00  0.00     0.037 C 
HETATM   29  C   UNK N   1      -0.357  -0.683  -2.840  0.00  0.00     0.037 C 
HETATM   30  C   UNK N   1       1.667   0.738  -2.609  0.00  0.00     0.037 C 
ENDBRANCH   3  27
TORSDOF 5
