MODEL 1
REMARK VINA RESULT:      -6.6      0.000      0.000
REMARK  5 active torsions:
REMARK  status: ('A' for Active; 'I' for Inactive)
REMARK    1  A    between atoms: C_2  and  O_3 
REMARK    2  A    between atoms: O_3  and  C_4 
REMARK    3  A    between atoms: C_7  and  N_8 
REMARK       I    between atoms: N_8  and  C_9 
REMARK       I    between atoms: C_9  and  N_11 
REMARK    4  A    between atoms: C_15  and  C_16 
REMARK    5  A    between atoms: C_20  and  C_21 
ROOT
HETATM    1  N   UNK N   1     169.382 151.079 154.616  0.00  0.00    -0.308 N 
HETATM    2  C   UNK N   1     168.200 151.649 154.991  0.00  0.00     0.323 C 
HETATM    3  O   UNK N   1     167.424 151.038 155.717  0.00  0.00    -0.247 OA
HETATM    4  N   UNK N   1     167.883 152.916 154.599  0.00  0.00    -0.322 N 
HETATM    5  C   UNK N   1     166.769 153.610 155.182  0.00  0.00     0.128 C 
HETATM    6  C   UNK N   1     167.213 155.069 155.199  0.00  0.00     0.022 C 
HETATM    7  C   UNK N   1     168.633 155.084 154.614  0.00  0.00     0.035 C 
HETATM    8  C   UNK N   1     168.767 153.773 153.857  0.00  0.00     0.158 C 
HETATM    9  H   UNK N   1     169.974 151.605 154.032  0.00  0.00     0.170 HD
ENDROOT
BRANCH   8  10
HETATM   10  C   UNK N   1     168.225 153.980 152.464  0.00  0.00     0.127 A 
HETATM   11  N   UNK N   1     167.999 155.190 151.912  0.00  0.00    -0.245 N 
HETATM   12  O   UNK N   1     167.537 154.956 150.723  0.00  0.00    -0.222 OA
ATOM     13  HN  UNK N   1     168.159 156.101 152.342  1.00  0.00     0.196 HD
HETATM   14  C   UNK N   1     167.483 153.663 150.518  0.00  0.00     0.151 A 
HETATM   15  N   UNK N   1     167.912 152.986 151.605  0.00  0.00    -0.325 N 
ATOM     16  HN  UNK N   1     167.984 151.979 151.744  1.00  0.00     0.169 HD
BRANCH  14  17
HETATM   17  C   UNK N   1     166.999 153.021 149.255  0.00  0.00     0.055 C 
HETATM   18  C   UNK N   1     168.113 153.013 148.225  0.00  0.00     0.018 C 
HETATM   19  C   UNK N   1     165.802 153.758 148.683  0.00  0.00     0.018 C 
ENDBRANCH  14  17
ENDBRANCH   8  10
BRANCH   1  20
HETATM   20  C   UNK N   1     169.829 149.777 155.008  0.00  0.00     0.051 A 
HETATM   21  C   UNK N   1     170.750 149.584 156.050  0.00  0.00     0.035 A 
HETATM   22  C   UNK N   1     171.173 148.301 156.390  0.00  0.00     0.058 A 
HETATM   23  C   UNK N   1     170.678 147.207 155.684  0.00  0.00     0.141 A 
HETATM   24  N   UNK N   1     169.782 147.405 154.671  0.00  0.00    -0.345 N 
HETATM   25  C   UNK N   1     169.353 148.652 154.327  0.00  0.00     0.119 A 
ATOM     26  HN  UNK N   1     169.425 146.598 154.159  1.00  0.00     0.167 HD
BRANCH  23  27
HETATM   27  O   UNK N   1     171.098 145.962 156.013  0.00  0.00    -0.336 OA
BRANCH  27  28
HETATM   28  C   UNK N   1     170.251 144.968 156.452  0.00  0.00     0.173 C 
HETATM   29  C   UNK N   1     169.416 145.456 157.622  0.00  0.00     0.034 C 
ENDBRANCH  27  28
ENDBRANCH  23  27
ENDBRANCH   1  20
TORSDOF 5
ENDMDL
MODEL 2
REMARK VINA RESULT:      -6.1      5.083      7.976
REMARK  5 active torsions:
REMARK  status: ('A' for Active; 'I' for Inactive)
REMARK    1  A    between atoms: C_2  and  O_3 
REMARK    2  A    between atoms: O_3  and  C_4 
REMARK    3  A    between atoms: C_7  and  N_8 
REMARK       I    between atoms: N_8  and  C_9 
REMARK       I    between atoms: C_9  and  N_11 
REMARK    4  A    between atoms: C_15  and  C_16 
REMARK    5  A    between atoms: C_20  and  C_21 
ROOT
HETATM    1  N   UNK N   1     165.164 155.378 155.307  0.00  0.00    -0.308 N 
HETATM    2  C   UNK N   1     165.914 156.392 154.786  0.00  0.00     0.323 C 
HETATM    3  O   UNK N   1     165.565 157.557 154.937  0.00  0.00    -0.247 OA
HETATM    4  N   UNK N   1     167.079 156.129 154.127  0.00  0.00    -0.322 N 
HETATM    5  C   UNK N   1     167.992 157.186 153.793  0.00  0.00     0.128 C 
HETATM    6  C   UNK N   1     169.366 156.533 153.901  0.00  0.00     0.022 C 
HETATM    7  C   UNK N   1     169.110 155.083 154.335  0.00  0.00     0.035 C 
HETATM    8  C   UNK N   1     167.652 154.816 154.000  0.00  0.00     0.158 C 
HETATM    9  H   UNK N   1     165.481 154.457 155.161  0.00  0.00     0.170 HD
ENDROOT
BRANCH   8  10
HETATM   10  C   UNK N   1     167.578 154.365 152.562  0.00  0.00     0.127 A 
HETATM   11  N   UNK N   1     168.066 153.191 152.111  0.00  0.00    -0.245 N 
HETATM   12  O   UNK N   1     167.817 153.170 150.838  0.00  0.00    -0.222 OA
ATOM     13  HN  UNK N   1     168.533 152.469 152.659  1.00  0.00     0.196 HD
HETATM   14  C   UNK N   1     167.190 154.268 150.493  0.00  0.00     0.151 A 
HETATM   15  N   UNK N   1     167.011 155.074 151.563  0.00  0.00    -0.325 N 
ATOM     16  HN  UNK N   1     166.559 155.987 151.605  1.00  0.00     0.169 HD
BRANCH  14  17
HETATM   17  C   UNK N   1     166.743 154.591 149.101  0.00  0.00     0.055 C 
HETATM   18  C   UNK N   1     165.778 153.528 148.613  0.00  0.00     0.018 C 
HETATM   19  C   UNK N   1     167.920 154.668 148.146  0.00  0.00     0.018 C 
ENDBRANCH  14  17
ENDBRANCH   8  10
BRANCH   1  20
HETATM   20  C   UNK N   1     163.953 155.548 156.051  0.00  0.00     0.051 A 
HETATM   21  C   UNK N   1     163.944 156.063 157.357  0.00  0.00     0.035 A 
HETATM   22  C   UNK N   1     162.746 156.197 158.055  0.00  0.00     0.058 A 
HETATM   23  C   UNK N   1     161.553 155.812 157.447  0.00  0.00     0.141 A 
HETATM   24  N   UNK N   1     161.572 155.311 156.176  0.00  0.00    -0.345 N 
HETATM   25  C   UNK N   1     162.733 155.177 155.476  0.00  0.00     0.119 A 
ATOM     26  HN  UNK N   1     160.694 155.031 155.739  1.00  0.00     0.167 HD
BRANCH  23  27
HETATM   27  O   UNK N   1     160.391 155.937 158.132  0.00  0.00    -0.336 OA
BRANCH  27  28
HETATM   28  C   UNK N   1     159.719 157.132 158.272  0.00  0.00     0.173 C 
HETATM   29  C   UNK N   1     158.274 156.987 157.828  0.00  0.00     0.034 C 
ENDBRANCH  27  28
ENDBRANCH  23  27
ENDBRANCH   1  20
TORSDOF 5
ENDMDL
MODEL 3
REMARK VINA RESULT:      -6.1     11.893     13.349
REMARK  5 active torsions:
REMARK  status: ('A' for Active; 'I' for Inactive)
REMARK    1  A    between atoms: C_2  and  O_3 
REMARK    2  A    between atoms: O_3  and  C_4 
REMARK    3  A    between atoms: C_7  and  N_8 
REMARK       I    between atoms: N_8  and  C_9 
REMARK       I    between atoms: C_9  and  N_11 
REMARK    4  A    between atoms: C_15  and  C_16 
REMARK    5  A    between atoms: C_20  and  C_21 
ROOT
HETATM    1  N   UNK N   1     159.573 147.185 162.002  0.00  0.00    -0.308 N 
HETATM    2  C   UNK N   1     159.235 146.022 161.375  0.00  0.00     0.323 C 
HETATM    3  O   UNK N   1     159.950 145.032 161.484  0.00  0.00    -0.247 OA
HETATM    4  N   UNK N   1     158.082 145.929 160.653  0.00  0.00    -0.322 N 
HETATM    5  C   UNK N   1     157.596 144.656 160.199  0.00  0.00     0.128 C 
HETATM    6  C   UNK N   1     156.079 144.802 160.248  0.00  0.00     0.022 C 
HETATM    7  C   UNK N   1     155.808 146.217 160.780  0.00  0.00     0.035 C 
HETATM    8  C   UNK N   1     157.104 146.981 160.561  0.00  0.00     0.158 C 
HETATM    9  H   UNK N   1     158.971 147.955 161.887  0.00  0.00     0.170 HD
ENDROOT
BRANCH   8  10
HETATM   10  C   UNK N   1     157.087 147.538 159.159  0.00  0.00     0.127 A 
HETATM   11  N   UNK N   1     158.182 147.978 158.507  0.00  0.00    -0.245 N 
HETATM   12  O   UNK N   1     157.765 148.378 157.345  0.00  0.00    -0.222 OA
ATOM     13  HN  UNK N   1     159.140 147.993 158.855  1.00  0.00     0.196 HD
HETATM   14  C   UNK N   1     156.471 148.191 157.253  0.00  0.00     0.151 A 
HETATM   15  N   UNK N   1     155.982 147.654 158.392  0.00  0.00    -0.325 N 
ATOM     16  HN  UNK N   1     155.021 147.399 158.616  1.00  0.00     0.169 HD
BRANCH  14  17
HETATM   17  C   UNK N   1     155.645 148.536 156.053  0.00  0.00     0.055 C 
HETATM   18  C   UNK N   1     154.301 149.081 156.497  0.00  0.00     0.018 C 
HETATM   19  C   UNK N   1     155.420 147.324 155.169  0.00  0.00     0.018 C 
ENDBRANCH  14  17
ENDBRANCH   8  10
BRANCH   1  20
HETATM   20  C   UNK N   1     160.735 147.373 162.818  0.00  0.00     0.051 A 
HETATM   21  C   UNK N   1     160.648 147.667 164.187  0.00  0.00     0.035 A 
HETATM   22  C   UNK N   1     161.802 147.860 164.942  0.00  0.00     0.058 A 
HETATM   23  C   UNK N   1     163.048 147.763 164.326  0.00  0.00     0.141 A 
HETATM   24  N   UNK N   1     163.122 147.477 162.992  0.00  0.00    -0.345 N 
HETATM   25  C   UNK N   1     162.005 147.280 162.238  0.00  0.00     0.119 A 
ATOM     26  HN  UNK N   1     164.039 147.409 162.549  1.00  0.00     0.167 HD
BRANCH  23  27
HETATM   27  O   UNK N   1     164.168 147.959 165.063  0.00  0.00    -0.336 OA
BRANCH  27  28
HETATM   28  C   UNK N   1     164.419 149.116 165.768  0.00  0.00     0.173 C 
HETATM   29  C   UNK N   1     164.681 150.272 164.819  0.00  0.00     0.034 C 
ENDBRANCH  27  28
ENDBRANCH  23  27
ENDBRANCH   1  20
TORSDOF 5
ENDMDL
MODEL 4
REMARK VINA RESULT:      -5.9      4.570      8.020
REMARK  5 active torsions:
REMARK  status: ('A' for Active; 'I' for Inactive)
REMARK    1  A    between atoms: C_2  and  O_3 
REMARK    2  A    between atoms: O_3  and  C_4 
REMARK    3  A    between atoms: C_7  and  N_8 
REMARK       I    between atoms: N_8  and  C_9 
REMARK       I    between atoms: C_9  and  N_11 
REMARK    4  A    between atoms: C_15  and  C_16 
REMARK    5  A    between atoms: C_20  and  C_21 
ROOT
HETATM    1  N   UNK N   1     167.637 154.849 155.006  0.00  0.00    -0.308 N 
HETATM    2  C   UNK N   1     166.560 154.783 155.841  0.00  0.00     0.323 C 
HETATM    3  O   UNK N   1     165.484 154.367 155.427  0.00  0.00    -0.247 OA
HETATM    4  N   UNK N   1     166.673 155.139 157.152  0.00  0.00    -0.322 N 
HETATM    5  C   UNK N   1     165.625 154.844 158.089  0.00  0.00     0.128 C 
HETATM    6  C   UNK N   1     166.364 154.574 159.396  0.00  0.00     0.022 C 
HETATM    7  C   UNK N   1     167.858 154.722 159.073  0.00  0.00     0.035 C 
HETATM    8  C   UNK N   1     167.911 155.519 157.779  0.00  0.00     0.158 C 
HETATM    9  H   UNK N   1     168.481 155.190 155.380  0.00  0.00     0.170 HD
ENDROOT
BRANCH   8  10
HETATM   10  C   UNK N   1     167.874 156.985 158.131  0.00  0.00     0.127 A 
HETATM   11  N   UNK N   1     168.245 157.485 159.328  0.00  0.00    -0.245 N 
HETATM   12  O   UNK N   1     168.071 158.768 159.245  0.00  0.00    -0.222 OA
ATOM     13  HN  UNK N   1     168.592 156.962 160.131  1.00  0.00     0.196 HD
HETATM   14  C   UNK N   1     167.624 159.075 158.052  0.00  0.00     0.151 A 
HETATM   15  N   UNK N   1     167.478 157.967 157.294  0.00  0.00    -0.325 N 
ATOM     16  HN  UNK N   1     167.152 157.890 156.331  1.00  0.00     0.169 HD
BRANCH  14  17
HETATM   17  C   UNK N   1     167.307 160.466 157.594  0.00  0.00     0.055 C 
HETATM   18  C   UNK N   1     166.973 161.335 158.792  0.00  0.00     0.018 C 
HETATM   19  C   UNK N   1     166.134 160.477 156.632  0.00  0.00     0.018 C 
ENDBRANCH  14  17
ENDBRANCH   8  10
BRANCH   1  20
HETATM   20  C   UNK N   1     167.636 154.459 153.629  0.00  0.00     0.051 A 
HETATM   21  C   UNK N   1     167.104 155.276 152.619  0.00  0.00     0.035 A 
HETATM   22  C   UNK N   1     167.107 154.852 151.292  0.00  0.00     0.058 A 
HETATM   23  C   UNK N   1     167.638 153.604 150.973  0.00  0.00     0.141 A 
HETATM   24  N   UNK N   1     168.153 152.815 151.963  0.00  0.00    -0.345 N 
HETATM   25  C   UNK N   1     168.164 153.215 153.266  0.00  0.00     0.119 A 
ATOM     26  HN  UNK N   1     168.539 151.903 151.720  1.00  0.00     0.167 HD
BRANCH  23  27
HETATM   27  O   UNK N   1     167.632 153.193 149.683  0.00  0.00    -0.336 OA
BRANCH  27  28
HETATM   28  C   UNK N   1     167.251 154.000 148.632  0.00  0.00     0.173 C 
HETATM   29  C   UNK N   1     165.857 153.632 148.155  0.00  0.00     0.034 C 
ENDBRANCH  27  28
ENDBRANCH  23  27
ENDBRANCH   1  20
TORSDOF 5
ENDMDL
MODEL 5
REMARK VINA RESULT:      -5.9      4.568      8.645
REMARK  5 active torsions:
REMARK  status: ('A' for Active; 'I' for Inactive)
REMARK    1  A    between atoms: C_2  and  O_3 
REMARK    2  A    between atoms: O_3  and  C_4 
REMARK    3  A    between atoms: C_7  and  N_8 
REMARK       I    between atoms: N_8  and  C_9 
REMARK       I    between atoms: C_9  and  N_11 
REMARK    4  A    between atoms: C_15  and  C_16 
REMARK    5  A    between atoms: C_20  and  C_21 
ROOT
HETATM    1  N   UNK N   1     165.090 155.577 155.751  0.00  0.00    -0.308 N 
HETATM    2  C   UNK N   1     165.650 155.934 154.559  0.00  0.00     0.323 C 
HETATM    3  O   UNK N   1     164.973 156.490 153.702  0.00  0.00    -0.247 OA
HETATM    4  N   UNK N   1     166.974 155.715 154.319  0.00  0.00    -0.322 N 
HETATM    5  C   UNK N   1     167.624 156.302 153.180  0.00  0.00     0.128 C 
HETATM    6  C   UNK N   1     169.042 156.578 153.667  0.00  0.00     0.022 C 
HETATM    7  C   UNK N   1     169.080 156.124 155.134  0.00  0.00     0.035 C 
HETATM    8  C   UNK N   1     167.892 155.189 155.293  0.00  0.00     0.158 C 
HETATM    9  H   UNK N   1     165.670 155.132 156.410  0.00  0.00     0.170 HD
ENDROOT
BRANCH   8  10
HETATM   10  C   UNK N   1     168.330 153.804 154.885  0.00  0.00     0.127 A 
HETATM   11  N   UNK N   1     167.532 152.717 154.923  0.00  0.00    -0.245 N 
HETATM   12  O   UNK N   1     168.260 151.729 154.505  0.00  0.00    -0.222 OA
ATOM     13  HN  UNK N   1     166.557 152.681 155.219  1.00  0.00     0.196 HD
HETATM   14  C   UNK N   1     169.459 152.162 154.202  0.00  0.00     0.151 A 
HETATM   15  N   UNK N   1     169.560 153.490 154.428  0.00  0.00    -0.325 N 
ATOM     16  HN  UNK N   1     170.363 154.102 154.288  1.00  0.00     0.169 HD
BRANCH  14  17
HETATM   17  C   UNK N   1     170.570 151.301 153.686  0.00  0.00     0.055 C 
HETATM   18  C   UNK N   1     170.119 150.581 152.430  0.00  0.00     0.018 C 
HETATM   19  C   UNK N   1     171.000 150.275 154.718  0.00  0.00     0.018 C 
ENDBRANCH  14  17
ENDBRANCH   8  10
BRANCH   1  20
HETATM   20  C   UNK N   1     163.725 155.801 156.119  0.00  0.00     0.051 A 
HETATM   21  C   UNK N   1     163.310 156.969 156.777  0.00  0.00     0.035 A 
HETATM   22  C   UNK N   1     161.974 157.143 157.134  0.00  0.00     0.058 A 
HETATM   23  C   UNK N   1     161.051 156.143 156.835  0.00  0.00     0.141 A 
HETATM   24  N   UNK N   1     161.465 155.009 156.195  0.00  0.00    -0.345 N 
HETATM   25  C   UNK N   1     162.765 154.824 155.834  0.00  0.00     0.119 A 
ATOM     26  HN  UNK N   1     160.782 154.282 155.981  1.00  0.00     0.167 HD
BRANCH  23  27
HETATM   27  O   UNK N   1     159.755 156.313 157.190  0.00  0.00    -0.336 OA
BRANCH  27  28
HETATM   28  C   UNK N   1     159.333 157.278 158.079  0.00  0.00     0.173 C 
HETATM   29  C   UNK N   1     157.910 157.001 158.531  0.00  0.00     0.034 C 
ENDBRANCH  27  28
ENDBRANCH  23  27
ENDBRANCH   1  20
TORSDOF 5
ENDMDL
MODEL 6
REMARK VINA RESULT:      -5.9      6.293      9.797
REMARK  5 active torsions:
REMARK  status: ('A' for Active; 'I' for Inactive)
REMARK    1  A    between atoms: C_2  and  O_3 
REMARK    2  A    between atoms: O_3  and  C_4 
REMARK    3  A    between atoms: C_7  and  N_8 
REMARK       I    between atoms: N_8  and  C_9 
REMARK       I    between atoms: C_9  and  N_11 
REMARK    4  A    between atoms: C_15  and  C_16 
REMARK    5  A    between atoms: C_20  and  C_21 
ROOT
HETATM    1  N   UNK N   1     166.641 158.497 154.949  0.00  0.00    -0.308 N 
HETATM    2  C   UNK N   1     166.449 158.337 156.291  0.00  0.00     0.323 C 
HETATM    3  O   UNK N   1     166.345 157.213 156.768  0.00  0.00    -0.247 OA
HETATM    4  N   UNK N   1     166.410 159.416 157.122  0.00  0.00    -0.322 N 
HETATM    5  C   UNK N   1     166.456 159.251 158.549  0.00  0.00     0.128 C 
HETATM    6  C   UNK N   1     167.219 160.477 159.037  0.00  0.00     0.022 C 
HETATM    7  C   UNK N   1     167.589 161.273 157.777  0.00  0.00     0.035 C 
HETATM    8  C   UNK N   1     166.647 160.770 156.696  0.00  0.00     0.158 C 
HETATM    9  H   UNK N   1     166.718 159.417 154.608  0.00  0.00     0.170 HD
ENDROOT
BRANCH   8  10
HETATM   10  C   UNK N   1     165.367 161.563 156.784  0.00  0.00     0.127 A 
HETATM   11  N   UNK N   1     165.290 162.898 156.607  0.00  0.00    -0.245 N 
HETATM   12  O   UNK N   1     164.040 163.204 156.762  0.00  0.00    -0.222 OA
ATOM     13  HN  UNK N   1     166.058 163.534 156.394  1.00  0.00     0.196 HD
HETATM   14  C   UNK N   1     163.348 162.120 157.012  0.00  0.00     0.151 A 
HETATM   15  N   UNK N   1     164.151 161.034 157.039  0.00  0.00    -0.325 N 
ATOM     16  HN  UNK N   1     163.903 160.060 157.207  1.00  0.00     0.169 HD
BRANCH  14  17
HETATM   17  C   UNK N   1     161.869 162.089 157.248  0.00  0.00     0.055 C 
HETATM   18  C   UNK N   1     161.138 162.380 155.952  0.00  0.00     0.018 C 
HETATM   19  C   UNK N   1     161.454 163.110 158.291  0.00  0.00     0.018 C 
ENDBRANCH  14  17
ENDBRANCH   8  10
BRANCH   1  20
HETATM   20  C   UNK N   1     166.742 157.431 153.999  0.00  0.00     0.051 A 
HETATM   21  C   UNK N   1     165.610 156.796 153.464  0.00  0.00     0.035 A 
HETATM   22  C   UNK N   1     165.751 155.751 152.555  0.00  0.00     0.058 A 
HETATM   23  C   UNK N   1     167.028 155.336 152.180  0.00  0.00     0.141 A 
HETATM   24  N   UNK N   1     168.123 155.960 152.707  0.00  0.00    -0.345 N 
HETATM   25  C   UNK N   1     168.005 156.987 153.594  0.00  0.00     0.119 A 
ATOM     26  HN  UNK N   1     169.054 155.649 152.428  1.00  0.00     0.167 HD
BRANCH  23  27
HETATM   27  O   UNK N   1     167.159 154.314 151.301  0.00  0.00    -0.336 OA
BRANCH  27  28
HETATM   28  C   UNK N   1     167.251 154.494 149.938  0.00  0.00     0.173 C 
HETATM   29  C   UNK N   1     165.989 154.005 149.249  0.00  0.00     0.034 C 
ENDBRANCH  27  28
ENDBRANCH  23  27
ENDBRANCH   1  20
TORSDOF 5
ENDMDL
MODEL 7
REMARK VINA RESULT:      -5.7     11.659     13.235
REMARK  5 active torsions:
REMARK  status: ('A' for Active; 'I' for Inactive)
REMARK    1  A    between atoms: C_2  and  O_3 
REMARK    2  A    between atoms: O_3  and  C_4 
REMARK    3  A    between atoms: C_7  and  N_8 
REMARK       I    between atoms: N_8  and  C_9 
REMARK       I    between atoms: C_9  and  N_11 
REMARK    4  A    between atoms: C_15  and  C_16 
REMARK    5  A    between atoms: C_20  and  C_21 
ROOT
HETATM    1  N   UNK N   1     159.780 147.038 162.137  0.00  0.00    -0.308 N 
HETATM    2  C   UNK N   1     159.128 145.840 162.089  0.00  0.00     0.323 C 
HETATM    3  O   UNK N   1     159.464 144.925 162.832  0.00  0.00    -0.247 OA
HETATM    4  N   UNK N   1     158.073 145.656 161.246  0.00  0.00    -0.322 N 
HETATM    5  C   UNK N   1     157.232 144.497 161.360  0.00  0.00     0.128 C 
HETATM    6  C   UNK N   1     155.849 145.005 160.962  0.00  0.00     0.022 C 
HETATM    7  C   UNK N   1     156.021 146.501 160.661  0.00  0.00     0.035 C 
HETATM    8  C   UNK N   1     157.510 146.693 160.423  0.00  0.00     0.158 C 
HETATM    9  H   UNK N   1     159.479 147.744 161.522  0.00  0.00     0.170 HD
ENDROOT
BRANCH   8  10
HETATM   10  C   UNK N   1     157.793 146.400 158.970  0.00  0.00     0.127 A 
HETATM   11  N   UNK N   1     158.667 145.466 158.543  0.00  0.00    -0.245 N 
HETATM   12  O   UNK N   1     158.633 145.515 157.248  0.00  0.00    -0.222 OA
ATOM     13  HN  UNK N   1     159.236 144.847 159.121  1.00  0.00     0.196 HD
HETATM   14  C   UNK N   1     157.772 146.426 156.864  0.00  0.00     0.151 A 
HETATM   15  N   UNK N   1     157.202 147.027 157.931  0.00  0.00    -0.325 N 
ATOM     16  HN  UNK N   1     156.501 147.767 157.948  1.00  0.00     0.169 HD
BRANCH  14  17
HETATM   17  C   UNK N   1     157.468 146.762 155.437  0.00  0.00     0.055 C 
HETATM   18  C   UNK N   1     158.640 146.369 154.558  0.00  0.00     0.018 C 
HETATM   19  C   UNK N   1     157.196 148.245 155.264  0.00  0.00     0.018 C 
ENDBRANCH  14  17
ENDBRANCH   8  10
BRANCH   1  20
HETATM   20  C   UNK N   1     160.868 147.348 163.015  0.00  0.00     0.051 A 
HETATM   21  C   UNK N   1     160.665 147.830 164.318  0.00  0.00     0.035 A 
HETATM   22  C   UNK N   1     161.750 148.137 165.135  0.00  0.00     0.058 A 
HETATM   23  C   UNK N   1     163.044 147.964 164.647  0.00  0.00     0.141 A 
HETATM   24  N   UNK N   1     163.232 147.495 163.378  0.00  0.00    -0.345 N 
HETATM   25  C   UNK N   1     162.183 147.185 162.566  0.00  0.00     0.119 A 
ATOM     26  HN  UNK N   1     164.183 147.373 163.030  1.00  0.00     0.167 HD
BRANCH  23  27
HETATM   27  O   UNK N   1     164.096 148.271 165.444  0.00  0.00    -0.336 OA
BRANCH  27  28
HETATM   28  C   UNK N   1     165.177 149.014 165.019  0.00  0.00     0.173 C 
HETATM   29  C   UNK N   1     164.788 150.471 164.847  0.00  0.00     0.034 C 
ENDBRANCH  27  28
ENDBRANCH  23  27
ENDBRANCH   1  20
TORSDOF 5
ENDMDL
MODEL 8
REMARK VINA RESULT:      -5.5      3.845      5.947
REMARK  5 active torsions:
REMARK  status: ('A' for Active; 'I' for Inactive)
REMARK    1  A    between atoms: C_2  and  O_3 
REMARK    2  A    between atoms: O_3  and  C_4 
REMARK    3  A    between atoms: C_7  and  N_8 
REMARK       I    between atoms: N_8  and  C_9 
REMARK       I    between atoms: C_9  and  N_11 
REMARK    4  A    between atoms: C_15  and  C_16 
REMARK    5  A    between atoms: C_20  and  C_21 
ROOT
HETATM    1  N   UNK N   1     167.456 153.828 154.532  0.00  0.00    -0.308 N 
HETATM    2  C   UNK N   1     167.667 155.143 154.827  0.00  0.00     0.323 C 
HETATM    3  O   UNK N   1     168.790 155.537 155.121  0.00  0.00    -0.247 OA
HETATM    4  N   UNK N   1     166.645 156.044 154.762  0.00  0.00    -0.322 N 
HETATM    5  C   UNK N   1     166.901 157.456 154.829  0.00  0.00     0.128 C 
HETATM    6  C   UNK N   1     165.833 158.067 153.928  0.00  0.00     0.022 C 
HETATM    7  C   UNK N   1     165.026 156.885 153.371  0.00  0.00     0.035 C 
HETATM    8  C   UNK N   1     165.319 155.724 154.307  0.00  0.00     0.158 C 
HETATM    9  H   UNK N   1     166.539 153.556 154.302  0.00  0.00     0.170 HD
ENDROOT
BRANCH   8  10
HETATM   10  C   UNK N   1     164.352 155.799 155.462  0.00  0.00     0.127 A 
HETATM   11  N   UNK N   1     164.644 155.410 156.720  0.00  0.00    -0.245 N 
HETATM   12  O   UNK N   1     163.571 155.624 157.416  0.00  0.00    -0.222 OA
ATOM     13  HN  UNK N   1     165.529 155.027 157.054  1.00  0.00     0.196 HD
HETATM   14  C   UNK N   1     162.642 156.137 156.646  0.00  0.00     0.151 A 
HETATM   15  N   UNK N   1     163.090 156.270 155.378  0.00  0.00    -0.325 N 
ATOM     16  HN  UNK N   1     162.599 156.637 154.564  1.00  0.00     0.169 HD
BRANCH  14  17
HETATM   17  C   UNK N   1     161.268 156.513 157.106  0.00  0.00     0.055 C 
HETATM   18  C   UNK N   1     161.093 158.017 157.020  0.00  0.00     0.018 C 
HETATM   19  C   UNK N   1     161.022 156.066 158.535  0.00  0.00     0.018 C 
ENDBRANCH  14  17
ENDBRANCH   8  10
BRANCH   1  20
HETATM   20  C   UNK N   1     168.466 152.814 154.527  0.00  0.00     0.051 A 
HETATM   21  C   UNK N   1     169.171 152.464 153.364  0.00  0.00     0.035 A 
HETATM   22  C   UNK N   1     170.134 151.459 153.398  0.00  0.00     0.058 A 
HETATM   23  C   UNK N   1     170.393 150.798 154.597  0.00  0.00     0.141 A 
HETATM   24  N   UNK N   1     169.702 151.145 155.723  0.00  0.00    -0.345 N 
HETATM   25  C   UNK N   1     168.759 152.128 155.711  0.00  0.00     0.119 A 
ATOM     26  HN  UNK N   1     169.897 150.654 156.596  1.00  0.00     0.167 HD
BRANCH  23  27
HETATM   27  O   UNK N   1     171.326 149.816 154.623  0.00  0.00    -0.336 OA
BRANCH  27  28
HETATM   28  C   UNK N   1     171.060 148.528 155.035  0.00  0.00     0.173 C 
HETATM   29  C   UNK N   1     170.110 147.844 154.069  0.00  0.00     0.034 C 
ENDBRANCH  27  28
ENDBRANCH  23  27
ENDBRANCH   1  20
TORSDOF 5
ENDMDL
MODEL 9
REMARK VINA RESULT:      -5.5     12.496     14.329
REMARK  5 active torsions:
REMARK  status: ('A' for Active; 'I' for Inactive)
REMARK    1  A    between atoms: C_2  and  O_3 
REMARK    2  A    between atoms: O_3  and  C_4 
REMARK    3  A    between atoms: C_7  and  N_8 
REMARK       I    between atoms: N_8  and  C_9 
REMARK       I    between atoms: C_9  and  N_11 
REMARK    4  A    between atoms: C_15  and  C_16 
REMARK    5  A    between atoms: C_20  and  C_21 
ROOT
HETATM    1  N   UNK N   1     158.518 146.346 162.020  0.00  0.00    -0.308 N 
HETATM    2  C   UNK N   1     158.121 145.256 161.303  0.00  0.00     0.323 C 
HETATM    3  O   UNK N   1     158.926 144.373 161.026  0.00  0.00    -0.247 OA
HETATM    4  N   UNK N   1     156.821 145.111 160.918  0.00  0.00    -0.322 N 
HETATM    5  C   UNK N   1     156.344 143.866 160.384  0.00  0.00     0.128 C 
HETATM    6  C   UNK N   1     154.901 143.785 160.871  0.00  0.00     0.022 C 
HETATM    7  C   UNK N   1     154.668 145.049 161.711  0.00  0.00     0.035 C 
HETATM    8  C   UNK N   1     155.766 146.014 161.294  0.00  0.00     0.158 C 
HETATM    9  H   UNK N   1     157.840 147.031 162.219  0.00  0.00     0.170 HD
ENDROOT
BRANCH   8  10
HETATM   10  C   UNK N   1     155.287 146.771 160.080  0.00  0.00     0.127 A 
HETATM   11  N   UNK N   1     153.991 147.036 159.816  0.00  0.00    -0.245 N 
HETATM   12  O   UNK N   1     153.984 147.692 158.698  0.00  0.00    -0.222 OA
ATOM     13  HN  UNK N   1     153.183 146.774 160.381  1.00  0.00     0.196 HD
HETATM   14  C   UNK N   1     155.214 147.851 158.273  0.00  0.00     0.151 A 
HETATM   15  N   UNK N   1     156.093 147.277 159.123  0.00  0.00    -0.325 N 
ATOM     16  HN  UNK N   1     157.110 147.237 159.059  1.00  0.00     0.169 HD
BRANCH  14  17
HETATM   17  C   UNK N   1     155.593 148.562 157.011  0.00  0.00     0.055 C 
HETATM   18  C   UNK N   1     157.066 148.344 156.723  0.00  0.00     0.018 C 
HETATM   19  C   UNK N   1     155.324 150.052 157.113  0.00  0.00     0.018 C 
ENDBRANCH  14  17
ENDBRANCH   8  10
BRANCH   1  20
HETATM   20  C   UNK N   1     159.845 146.572 162.508  0.00  0.00     0.051 A 
HETATM   21  C   UNK N   1     160.861 147.102 161.698  0.00  0.00     0.035 A 
HETATM   22  C   UNK N   1     162.144 147.290 162.206  0.00  0.00     0.058 A 
HETATM   23  C   UNK N   1     162.414 146.943 163.528  0.00  0.00     0.141 A 
HETATM   24  N   UNK N   1     161.419 146.427 164.309  0.00  0.00    -0.345 N 
HETATM   25  C   UNK N   1     160.157 146.240 163.832  0.00  0.00     0.119 A 
ATOM     26  HN  UNK N   1     161.627 146.175 165.276  1.00  0.00     0.167 HD
BRANCH  23  27
HETATM   27  O   UNK N   1     163.666 147.121 164.016  0.00  0.00    -0.336 OA
BRANCH  27  28
HETATM   28  C   UNK N   1     163.967 148.010 165.025  0.00  0.00     0.173 C 
HETATM   29  C   UNK N   1     164.751 149.191 164.479  0.00  0.00     0.034 C 
ENDBRANCH  27  28
ENDBRANCH  23  27
ENDBRANCH   1  20
TORSDOF 5
ENDMDL
