MODEL 1
REMARK VINA RESULT:      -6.5      0.000      0.000
REMARK  2 active torsions:
REMARK  status: ('A' for Active; 'I' for Inactive)
REMARK    1  A    between atoms: C_5  and  C_6 
REMARK       I    between atoms: C_6  and  N_8 
REMARK    2  A    between atoms: N_11  and  C_12 
ROOT
HETATM    1  C   UNK N   1     166.531 155.706 154.001  0.00  0.00     0.051 A 
HETATM    2  C   UNK N   1     165.135 155.820 154.239  0.00  0.00     0.031 A 
HETATM    3  C   UNK N   1     164.486 157.049 154.175  0.00  0.00     0.002 A 
HETATM    4  C   UNK N   1     165.212 158.197 153.877  0.00  0.00     0.002 A 
HETATM    5  C   UNK N   1     166.583 158.122 153.640  0.00  0.00     0.025 A 
HETATM    6  C   UNK N   1     167.260 156.903 153.693  0.00  0.00     0.071 A 
HETATM    7  C   UNK N   1     168.682 156.941 153.433  0.00  0.00     0.102 C 
HETATM    8  N   UNK N   1     169.823 156.928 153.230  0.00  0.00    -0.191 NA
ENDROOT
BRANCH   1   9
HETATM    9  N   UNK N   1     167.120 154.389 154.067  0.00  0.00    -0.377 N 
HETATM   10  C   UNK N   1     166.862 153.592 155.244  0.00  0.00     0.143 C 
HETATM   11  C   UNK N   1     168.184 153.187 155.819  0.00  0.00     0.145 C 
HETATM   12  N   UNK N   1     168.817 152.365 154.827  0.00  0.00    -0.347 N 
HETATM   13  C   UNK N   1     169.164 151.089 155.168  0.00  0.00     0.249 C 
HETATM   14  C   UNK N   1     169.104 152.968 153.529  0.00  0.00     0.145 C 
HETATM   15  O   UNK N   1     168.935 150.687 156.299  0.00  0.00    -0.270 OA
HETATM   16  C   UNK N   1     167.879 153.761 152.985  0.00  0.00     0.143 C 
BRANCH  13  17
HETATM   17  C   UNK N   1     169.867 150.149 154.247  0.00  0.00     0.214 C 
HETATM   18  C   UNK N   1     168.836 149.429 153.402  0.00  0.00     0.044 C 
HETATM   19  C   UNK N   1     169.402 148.055 153.260  0.00  0.00     0.034 C 
HETATM   20  C   UNK N   1     170.738 148.143 153.982  0.00  0.00     0.118 C 
HETATM   21  C   UNK N   1     171.051 146.854 154.716  0.00  0.00     0.039 C 
HETATM   22  O   UNK N   1     170.717 149.227 154.875  0.00  0.00    -0.372 OA
ENDBRANCH  13  17
ENDBRANCH   1   9
TORSDOF 2
ENDMDL
MODEL 2
REMARK VINA RESULT:      -6.3      3.798      8.359
REMARK  2 active torsions:
REMARK  status: ('A' for Active; 'I' for Inactive)
REMARK    1  A    between atoms: C_5  and  C_6 
REMARK       I    between atoms: C_6  and  N_8 
REMARK    2  A    between atoms: N_11  and  C_12 
ROOT
HETATM    1  C   UNK N   1     168.149 153.395 154.560  0.00  0.00     0.051 A 
HETATM    2  C   UNK N   1     168.493 152.419 155.533  0.00  0.00     0.031 A 
HETATM    3  C   UNK N   1     168.993 151.173 155.167  0.00  0.00     0.002 A 
HETATM    4  C   UNK N   1     169.160 150.867 153.821  0.00  0.00     0.002 A 
HETATM    5  C   UNK N   1     168.831 151.799 152.840  0.00  0.00     0.025 A 
HETATM    6  C   UNK N   1     168.331 153.057 153.177  0.00  0.00     0.071 A 
HETATM    7  C   UNK N   1     168.021 153.946 152.079  0.00  0.00     0.102 C 
HETATM    8  N   UNK N   1     167.760 154.688 151.228  0.00  0.00    -0.191 NA
ENDROOT
BRANCH   1   9
HETATM    9  N   UNK N   1     167.657 154.669 155.028  0.00  0.00    -0.377 N 
HETATM   10  C   UNK N   1     166.227 154.840 155.142  0.00  0.00     0.143 C 
HETATM   11  C   UNK N   1     165.847 156.047 154.341  0.00  0.00     0.145 C 
HETATM   12  N   UNK N   1     166.502 157.163 154.963  0.00  0.00    -0.347 N 
HETATM   13  C   UNK N   1     165.732 158.194 155.420  0.00  0.00     0.249 C 
HETATM   14  C   UNK N   1     167.961 157.149 155.015  0.00  0.00     0.145 C 
HETATM   15  O   UNK N   1     164.519 158.144 155.282  0.00  0.00    -0.270 OA
HETATM   16  C   UNK N   1     168.502 155.770 155.492  0.00  0.00     0.143 C 
BRANCH  13  17
HETATM   17  C   UNK N   1     166.290 159.429 156.043  0.00  0.00     0.214 C 
HETATM   18  C   UNK N   1     166.126 159.336 157.546  0.00  0.00     0.044 C 
HETATM   19  C   UNK N   1     165.826 160.741 157.950  0.00  0.00     0.034 C 
HETATM   20  C   UNK N   1     165.915 161.515 156.644  0.00  0.00     0.118 C 
HETATM   21  C   UNK N   1     164.879 162.622 156.590  0.00  0.00     0.039 C 
HETATM   22  O   UNK N   1     165.750 160.632 155.565  0.00  0.00    -0.372 OA
ENDBRANCH  13  17
ENDBRANCH   1   9
TORSDOF 2
ENDMDL
MODEL 3
REMARK VINA RESULT:      -6.3      4.026      8.360
REMARK  2 active torsions:
REMARK  status: ('A' for Active; 'I' for Inactive)
REMARK    1  A    between atoms: C_5  and  C_6 
REMARK       I    between atoms: C_6  and  N_8 
REMARK    2  A    between atoms: N_11  and  C_12 
ROOT
HETATM    1  C   UNK N   1     167.185 154.735 151.952  0.00  0.00     0.051 A 
HETATM    2  C   UNK N   1     166.531 154.993 150.718  0.00  0.00     0.031 A 
HETATM    3  C   UNK N   1     166.657 154.129 149.634  0.00  0.00     0.002 A 
HETATM    4  C   UNK N   1     167.442 152.988 149.752  0.00  0.00     0.002 A 
HETATM    5  C   UNK N   1     168.099 152.705 150.947  0.00  0.00     0.025 A 
HETATM    6  C   UNK N   1     167.988 153.551 152.051  0.00  0.00     0.071 A 
HETATM    7  C   UNK N   1     168.714 153.161 153.240  0.00  0.00     0.102 C 
HETATM    8  N   UNK N   1     169.281 152.885 154.213  0.00  0.00    -0.191 NA
ENDROOT
BRANCH   1   9
HETATM    9  N   UNK N   1     166.983 155.674 153.031  0.00  0.00    -0.377 N 
HETATM   10  C   UNK N   1     166.001 155.344 154.038  0.00  0.00     0.143 C 
HETATM   11  C   UNK N   1     165.031 156.482 154.118  0.00  0.00     0.145 C 
HETATM   12  N   UNK N   1     165.786 157.622 154.556  0.00  0.00    -0.347 N 
HETATM   13  C   UNK N   1     165.406 158.246 155.710  0.00  0.00     0.249 C 
HETATM   14  C   UNK N   1     166.880 158.078 153.705  0.00  0.00     0.145 C 
HETATM   15  O   UNK N   1     164.439 157.827 156.329  0.00  0.00    -0.270 OA
HETATM   16  C   UNK N   1     167.770 156.890 153.235  0.00  0.00     0.143 C 
BRANCH  13  17
HETATM   17  C   UNK N   1     166.076 159.465 156.249  0.00  0.00     0.214 C 
HETATM   18  C   UNK N   1     165.829 159.539 157.742  0.00  0.00     0.044 C 
HETATM   19  C   UNK N   1     165.679 161.002 157.997  0.00  0.00     0.034 C 
HETATM   20  C   UNK N   1     165.923 161.629 156.633  0.00  0.00     0.118 C 
HETATM   21  C   UNK N   1     165.031 162.835 156.416  0.00  0.00     0.039 C 
HETATM   22  O   UNK N   1     165.707 160.668 155.631  0.00  0.00    -0.372 OA
ENDBRANCH  13  17
ENDBRANCH   1   9
TORSDOF 2
ENDMDL
MODEL 4
REMARK VINA RESULT:      -6.1      2.740      3.352
REMARK  2 active torsions:
REMARK  status: ('A' for Active; 'I' for Inactive)
REMARK    1  A    between atoms: C_5  and  C_6 
REMARK       I    between atoms: C_6  and  N_8 
REMARK    2  A    between atoms: N_11  and  C_12 
ROOT
HETATM    1  C   UNK N   1     167.224 157.878 156.611  0.00  0.00     0.051 A 
HETATM    2  C   UNK N   1     167.691 158.112 157.932  0.00  0.00     0.031 A 
HETATM    3  C   UNK N   1     167.461 159.322 158.580  0.00  0.00     0.002 A 
HETATM    4  C   UNK N   1     166.762 160.331 157.925  0.00  0.00     0.002 A 
HETATM    5  C   UNK N   1     166.293 160.137 156.629  0.00  0.00     0.025 A 
HETATM    6  C   UNK N   1     166.505 158.933 155.956  0.00  0.00     0.071 A 
HETATM    7  C   UNK N   1     165.975 158.840 154.614  0.00  0.00     0.102 C 
HETATM    8  N   UNK N   1     165.566 158.725 153.535  0.00  0.00    -0.191 NA
ENDROOT
BRANCH   1   9
HETATM    9  N   UNK N   1     167.489 156.586 156.021  0.00  0.00    -0.377 N 
HETATM   10  C   UNK N   1     166.434 155.601 156.050  0.00  0.00     0.143 C 
HETATM   11  C   UNK N   1     166.978 154.369 156.704  0.00  0.00     0.145 C 
HETATM   12  N   UNK N   1     168.035 153.898 155.854  0.00  0.00    -0.347 N 
HETATM   13  C   UNK N   1     167.941 152.635 155.343  0.00  0.00     0.249 C 
HETATM   14  C   UNK N   1     169.175 154.783 155.636  0.00  0.00     0.145 C 
HETATM   15  O   UNK N   1     166.974 151.943 155.626  0.00  0.00    -0.270 OA
HETATM   16  C   UNK N   1     168.717 156.234 155.307  0.00  0.00     0.143 C 
BRANCH  13  17
HETATM   17  C   UNK N   1     168.989 152.010 154.486  0.00  0.00     0.214 C 
HETATM   18  C   UNK N   1     168.757 152.425 153.047  0.00  0.00     0.044 C 
HETATM   19  C   UNK N   1     169.131 151.207 152.270  0.00  0.00     0.034 C 
HETATM   20  C   UNK N   1     169.607 150.234 153.337  0.00  0.00     0.118 C 
HETATM   21  C   UNK N   1     169.205 148.811 153.001  0.00  0.00     0.039 C 
HETATM   22  O   UNK N   1     169.083 150.614 154.584  0.00  0.00    -0.372 OA
ENDBRANCH  13  17
ENDBRANCH   1   9
TORSDOF 2
ENDMDL
MODEL 5
REMARK VINA RESULT:      -6.0      2.349      7.839
REMARK  2 active torsions:
REMARK  status: ('A' for Active; 'I' for Inactive)
REMARK    1  A    between atoms: C_5  and  C_6 
REMARK       I    between atoms: C_6  and  N_8 
REMARK    2  A    between atoms: N_11  and  C_12 
ROOT
HETATM    1  C   UNK N   1     169.930 149.537 154.543  0.00  0.00     0.051 A 
HETATM    2  C   UNK N   1     169.934 148.554 153.518  0.00  0.00     0.031 A 
HETATM    3  C   UNK N   1     170.605 147.344 153.674  0.00  0.00     0.002 A 
HETATM    4  C   UNK N   1     171.292 147.086 154.856  0.00  0.00     0.002 A 
HETATM    5  C   UNK N   1     171.311 148.029 155.880  0.00  0.00     0.025 A 
HETATM    6  C   UNK N   1     170.645 149.249 155.753  0.00  0.00     0.071 A 
HETATM    7  C   UNK N   1     170.731 150.154 156.877  0.00  0.00     0.102 C 
HETATM    8  N   UNK N   1     170.777 150.908 157.757  0.00  0.00    -0.191 NA
ENDROOT
BRANCH   1   9
HETATM    9  N   UNK N   1     169.192 150.755 154.304  0.00  0.00    -0.377 N 
HETATM   10  C   UNK N   1     169.574 151.566 153.172  0.00  0.00     0.143 C 
HETATM   11  C   UNK N   1     169.860 152.946 153.675  0.00  0.00     0.145 C 
HETATM   12  N   UNK N   1     168.624 153.443 154.210  0.00  0.00    -0.347 N 
HETATM   13  C   UNK N   1     168.105 154.591 153.683  0.00  0.00     0.249 C 
HETATM   14  C   UNK N   1     168.028 152.716 155.327  0.00  0.00     0.145 C 
HETATM   15  O   UNK N   1     168.704 155.164 152.786  0.00  0.00    -0.270 OA
HETATM   16  C   UNK N   1     168.019 151.180 155.068  0.00  0.00     0.143 C 
BRANCH  13  17
HETATM   17  C   UNK N   1     166.853 155.235 154.178  0.00  0.00     0.214 C 
HETATM   18  C   UNK N   1     166.130 155.864 153.004  0.00  0.00     0.044 C 
HETATM   19  C   UNK N   1     165.545 157.109 153.584  0.00  0.00     0.034 C 
HETATM   20  C   UNK N   1     165.935 157.037 155.052  0.00  0.00     0.118 C 
HETATM   21  C   UNK N   1     166.257 158.412 155.603  0.00  0.00     0.039 C 
HETATM   22  O   UNK N   1     167.034 156.175 155.203  0.00  0.00    -0.372 OA
ENDBRANCH  13  17
ENDBRANCH   1   9
TORSDOF 2
ENDMDL
MODEL 6
REMARK VINA RESULT:      -5.9      5.186      8.695
REMARK  2 active torsions:
REMARK  status: ('A' for Active; 'I' for Inactive)
REMARK    1  A    between atoms: C_5  and  C_6 
REMARK       I    between atoms: C_6  and  N_8 
REMARK    2  A    between atoms: N_11  and  C_12 
ROOT
HETATM    1  C   UNK N   1     166.785 155.910 155.248  0.00  0.00     0.051 A 
HETATM    2  C   UNK N   1     167.704 154.854 155.492  0.00  0.00     0.031 A 
HETATM    3  C   UNK N   1     168.923 154.784 154.825  0.00  0.00     0.002 A 
HETATM    4  C   UNK N   1     169.256 155.763 153.895  0.00  0.00     0.002 A 
HETATM    5  C   UNK N   1     168.378 156.811 153.629  0.00  0.00     0.025 A 
HETATM    6  C   UNK N   1     167.150 156.909 154.285  0.00  0.00     0.071 A 
HETATM    7  C   UNK N   1     166.316 158.036 153.932  0.00  0.00     0.102 C 
HETATM    8  N   UNK N   1     165.618 158.926 153.677  0.00  0.00    -0.191 NA
ENDROOT
BRANCH   1   9
HETATM    9  N   UNK N   1     165.552 155.917 156.000  0.00  0.00    -0.377 N 
HETATM   10  C   UNK N   1     164.459 155.109 155.511  0.00  0.00     0.143 C 
HETATM   11  C   UNK N   1     163.269 156.003 155.347  0.00  0.00     0.145 C 
HETATM   12  N   UNK N   1     162.945 156.483 156.661  0.00  0.00    -0.347 N 
HETATM   13  C   UNK N   1     161.698 156.225 157.155  0.00  0.00     0.249 C 
HETATM   14  C   UNK N   1     163.954 157.270 157.363  0.00  0.00     0.145 C 
HETATM   15  O   UNK N   1     160.898 155.606 156.471  0.00  0.00    -0.270 OA
HETATM   16  C   UNK N   1     165.359 156.604 157.277  0.00  0.00     0.143 C 
BRANCH  13  17
HETATM   17  C   UNK N   1     161.221 156.705 158.485  0.00  0.00     0.214 C 
HETATM   18  C   UNK N   1     161.266 155.552 159.466  0.00  0.00     0.044 C 
HETATM   19  C   UNK N   1     160.064 155.779 160.322  0.00  0.00     0.034 C 
HETATM   20  C   UNK N   1     159.485 157.080 159.788  0.00  0.00     0.118 C 
HETATM   21  C   UNK N   1     157.969 157.060 159.819  0.00  0.00     0.039 C 
HETATM   22  O   UNK N   1     159.949 157.297 158.480  0.00  0.00    -0.372 OA
ENDBRANCH  13  17
ENDBRANCH   1   9
TORSDOF 2
ENDMDL
MODEL 7
REMARK VINA RESULT:      -5.9      2.477      3.136
REMARK  2 active torsions:
REMARK  status: ('A' for Active; 'I' for Inactive)
REMARK    1  A    between atoms: C_5  and  C_6 
REMARK       I    between atoms: C_6  and  N_8 
REMARK    2  A    between atoms: N_11  and  C_12 
ROOT
HETATM    1  C   UNK N   1     167.453 157.255 156.490  0.00  0.00     0.051 A 
HETATM    2  C   UNK N   1     167.966 157.814 157.691  0.00  0.00     0.031 A 
HETATM    3  C   UNK N   1     167.629 159.103 158.094  0.00  0.00     0.002 A 
HETATM    4  C   UNK N   1     166.776 159.869 157.308  0.00  0.00     0.002 A 
HETATM    5  C   UNK N   1     166.257 159.353 156.122  0.00  0.00     0.025 A 
HETATM    6  C   UNK N   1     166.574 158.063 155.695  0.00  0.00     0.071 A 
HETATM    7  C   UNK N   1     165.980 157.630 154.450  0.00  0.00     0.102 C 
HETATM    8  N   UNK N   1     165.525 157.244 153.455  0.00  0.00    -0.191 NA
ENDROOT
BRANCH   1   9
HETATM    9  N   UNK N   1     167.839 155.903 156.158  0.00  0.00    -0.377 N 
HETATM   10  C   UNK N   1     169.134 155.699 155.552  0.00  0.00     0.143 C 
HETATM   11  C   UNK N   1     168.925 154.956 154.269  0.00  0.00     0.145 C 
HETATM   12  N   UNK N   1     168.372 153.681 154.630  0.00  0.00    -0.347 N 
HETATM   13  C   UNK N   1     169.047 152.554 154.260  0.00  0.00     0.249 C 
HETATM   14  C   UNK N   1     167.086 153.672 155.322  0.00  0.00     0.145 C 
HETATM   15  O   UNK N   1     170.090 152.658 153.632  0.00  0.00    -0.270 OA
HETATM   16  C   UNK N   1     167.054 154.711 156.481  0.00  0.00     0.143 C 
BRANCH  13  17
HETATM   17  C   UNK N   1     168.559 151.171 154.533  0.00  0.00     0.214 C 
HETATM   18  C   UNK N   1     169.251 150.644 155.774  0.00  0.00     0.044 C 
HETATM   19  C   UNK N   1     169.452 149.196 155.470  0.00  0.00     0.034 C 
HETATM   20  C   UNK N   1     168.795 149.022 154.110  0.00  0.00     0.118 C 
HETATM   21  C   UNK N   1     169.562 148.035 153.252  0.00  0.00     0.039 C 
HETATM   22  O   UNK N   1     168.706 150.269 153.470  0.00  0.00    -0.372 OA
ENDBRANCH  13  17
ENDBRANCH   1   9
TORSDOF 2
ENDMDL
MODEL 8
REMARK VINA RESULT:      -5.8      2.834      4.253
REMARK  2 active torsions:
REMARK  status: ('A' for Active; 'I' for Inactive)
REMARK    1  A    between atoms: C_5  and  C_6 
REMARK       I    between atoms: C_6  and  N_8 
REMARK    2  A    between atoms: N_11  and  C_12 
ROOT
HETATM    1  C   UNK N   1     165.845 158.211 156.633  0.00  0.00     0.051 A 
HETATM    2  C   UNK N   1     166.641 159.345 156.947  0.00  0.00     0.031 A 
HETATM    3  C   UNK N   1     166.069 160.535 157.385  0.00  0.00     0.002 A 
HETATM    4  C   UNK N   1     164.687 160.627 157.516  0.00  0.00     0.002 A 
HETATM    5  C   UNK N   1     163.876 159.536 157.213  0.00  0.00     0.025 A 
HETATM    6  C   UNK N   1     164.422 158.329 156.776  0.00  0.00     0.071 A 
HETATM    7  C   UNK N   1     163.489 157.263 156.489  0.00  0.00     0.102 C 
HETATM    8  N   UNK N   1     162.774 156.382 156.248  0.00  0.00    -0.191 NA
ENDROOT
BRANCH   1   9
HETATM    9  N   UNK N   1     166.523 157.010 156.205  0.00  0.00    -0.377 N 
HETATM   10  C   UNK N   1     166.877 156.893 154.810  0.00  0.00     0.143 C 
HETATM   11  C   UNK N   1     166.285 155.619 154.294  0.00  0.00     0.145 C 
HETATM   12  N   UNK N   1     166.917 154.558 155.026  0.00  0.00    -0.347 N 
HETATM   13  C   UNK N   1     167.599 153.605 154.327  0.00  0.00     0.249 C 
HETATM   14  C   UNK N   1     166.738 154.535 156.475  0.00  0.00     0.145 C 
HETATM   15  O   UNK N   1     167.649 153.675 153.108  0.00  0.00    -0.270 OA
HETATM   16  C   UNK N   1     166.968 155.942 157.101  0.00  0.00     0.143 C 
BRANCH  13  17
HETATM   17  C   UNK N   1     168.261 152.429 154.962  0.00  0.00     0.214 C 
HETATM   18  C   UNK N   1     169.354 151.925 154.041  0.00  0.00     0.044 C 
HETATM   19  C   UNK N   1     169.301 150.444 154.218  0.00  0.00     0.034 C 
HETATM   20  C   UNK N   1     168.227 150.248 155.276  0.00  0.00     0.118 C 
HETATM   21  C   UNK N   1     167.409 149.000 155.005  0.00  0.00     0.039 C 
HETATM   22  O   UNK N   1     167.398 151.382 155.317  0.00  0.00    -0.372 OA
ENDBRANCH  13  17
ENDBRANCH   1   9
TORSDOF 2
ENDMDL
MODEL 9
REMARK VINA RESULT:      -5.8      3.711      4.624
REMARK  2 active torsions:
REMARK  status: ('A' for Active; 'I' for Inactive)
REMARK    1  A    between atoms: C_5  and  C_6 
REMARK       I    between atoms: C_6  and  N_8 
REMARK    2  A    between atoms: N_11  and  C_12 
ROOT
HETATM    1  C   UNK N   1     166.816 158.826 157.362  0.00  0.00     0.051 A 
HETATM    2  C   UNK N   1     166.449 159.878 156.481  0.00  0.00     0.031 A 
HETATM    3  C   UNK N   1     166.238 161.173 156.945  0.00  0.00     0.002 A 
HETATM    4  C   UNK N   1     166.384 161.452 158.299  0.00  0.00     0.002 A 
HETATM    5  C   UNK N   1     166.741 160.444 159.192  0.00  0.00     0.025 A 
HETATM    6  C   UNK N   1     166.962 159.137 158.755  0.00  0.00     0.071 A 
HETATM    7  C   UNK N   1     167.326 158.170 159.767  0.00  0.00     0.102 C 
HETATM    8  N   UNK N   1     167.620 157.364 160.547  0.00  0.00    -0.191 NA
ENDROOT
BRANCH   1   9
HETATM    9  N   UNK N   1     167.035 157.517 156.794  0.00  0.00    -0.377 N 
HETATM   10  C   UNK N   1     165.877 156.753 156.391  0.00  0.00     0.143 C 
HETATM   11  C   UNK N   1     165.939 155.430 157.088  0.00  0.00     0.145 C 
HETATM   12  N   UNK N   1     167.122 154.776 156.603  0.00  0.00    -0.347 N 
HETATM   13  C   UNK N   1     166.987 153.563 155.991  0.00  0.00     0.249 C 
HETATM   14  C   UNK N   1     168.405 155.428 156.849  0.00  0.00     0.145 C 
HETATM   15  O   UNK N   1     165.876 153.067 155.880  0.00  0.00    -0.270 OA
HETATM   16  C   UNK N   1     168.350 156.945 156.503  0.00  0.00     0.143 C 
BRANCH  13  17
HETATM   17  C   UNK N   1     168.138 152.760 155.485  0.00  0.00     0.214 C 
HETATM   18  C   UNK N   1     168.348 153.077 154.018  0.00  0.00     0.044 C 
HETATM   19  C   UNK N   1     168.758 151.765 153.435  0.00  0.00     0.034 C 
HETATM   20  C   UNK N   1     168.809 150.839 154.641  0.00  0.00     0.118 C 
HETATM   21  C   UNK N   1     168.335 149.445 154.282  0.00  0.00     0.039 C 
HETATM   22  O   UNK N   1     168.027 151.376 155.676  0.00  0.00    -0.372 OA
ENDBRANCH  13  17
ENDBRANCH   1   9
TORSDOF 2
ENDMDL
