MODEL 1
REMARK VINA RESULT:      -6.6      0.000      0.000
REMARK  3 active torsions:
REMARK  status: ('A' for Active; 'I' for Inactive)
REMARK    1  A    between atoms: C_3  and  C_2 
REMARK       I    between atoms: N_11  and  C_12 
REMARK    2  A    between atoms: C_12  and  C_14 
REMARK    3  A    between atoms: C_18  and  N_19 
ROOT
HETATM    1  C   UNK N   1     166.821 153.998 155.718  0.00  0.00     0.137 C 
HETATM    2  C   UNK N   1     166.113 154.924 154.777  0.00  0.00     0.034 A 
HETATM    3  C   UNK N   1     164.840 155.434 154.904  0.00  0.00     0.028 A 
HETATM    4  C   UNK N   1     164.643 156.238 153.787  0.00  0.00     0.019 A 
HETATM    5  C   UNK N   1     165.810 156.180 153.034  0.00  0.00     0.091 A 
HETATM    6  N   UNK N   1     166.689 155.378 153.656  0.00  0.00    -0.357 N 
HETATM    7  C   UNK N   1     168.041 155.051 153.199  0.00  0.00     0.148 C 
HETATM    8  C   UNK N   1     168.810 154.222 154.245  0.00  0.00     0.147 C 
HETATM    9  N   UNK N   1     167.900 153.359 154.982  0.00  0.00    -0.336 N 
HETATM   10  C   UNK N   1     168.014 151.987 154.994  0.00  0.00     0.254 C 
HETATM   11  O   UNK N   1     167.205 151.336 155.644  0.00  0.00    -0.267 OA
ENDROOT
BRANCH  10  12
HETATM   12  C   UNK N   1     169.085 151.229 154.262  0.00  0.00     0.034 A 
HETATM   13  C   UNK N   1     170.312 150.889 154.850  0.00  0.00     0.017 A 
HETATM   14  C   UNK N   1     171.289 150.205 154.123  0.00  0.00     0.003 A 
HETATM   15  C   UNK N   1     171.051 149.847 152.796  0.00  0.00     0.030 A 
HETATM   16  C   UNK N   1     169.827 150.155 152.186  0.00  0.00     0.040 A 
HETATM   17  C   UNK N   1     168.855 150.849 152.927  0.00  0.00     0.047 A 
BRANCH  16  18
HETATM   18  N   UNK N   1     169.591 149.767 150.826  0.00  0.00    -0.292 N 
HETATM   19  C   UNK N   1     170.103 150.483 149.691  0.00  0.00     0.161 A 
HETATM   20  C   UNK N   1     169.547 149.656 148.497  0.00  0.00     0.201 A 
HETATM   21  O   UNK N   1     168.847 148.613 149.079  0.00  0.00    -0.302 OA
HETATM   22  C   UNK N   1     168.890 148.710 150.407  0.00  0.00     0.367 A 
HETATM   23  O   UNK N   1     168.363 147.897 151.148  0.00  0.00    -0.238 OA
ENDBRANCH  16  18
ENDBRANCH  10  12
BRANCH   1  24
HETATM   24  C   UNK N   1     167.399 154.780 156.900  0.00  0.00     0.027 C 
HETATM   25  C   UNK N   1     166.502 154.719 158.124  0.00  0.00     0.007 C 
ENDBRANCH   1  24
TORSDOF 3
ENDMDL
MODEL 2
REMARK VINA RESULT:      -6.4      5.376      9.772
REMARK  3 active torsions:
REMARK  status: ('A' for Active; 'I' for Inactive)
REMARK    1  A    between atoms: C_3  and  C_2 
REMARK       I    between atoms: N_11  and  C_12 
REMARK    2  A    between atoms: C_12  and  C_14 
REMARK    3  A    between atoms: C_18  and  N_19 
ROOT
HETATM    1  C   UNK N   1     166.313 154.977 155.905  0.00  0.00     0.137 C 
HETATM    2  C   UNK N   1     167.393 154.302 155.118  0.00  0.00     0.034 A 
HETATM    3  C   UNK N   1     167.606 152.947 154.979  0.00  0.00     0.028 A 
HETATM    4  C   UNK N   1     168.720 152.824 154.157  0.00  0.00     0.019 A 
HETATM    5  C   UNK N   1     169.130 154.112 153.833  0.00  0.00     0.091 A 
HETATM    6  N   UNK N   1     168.309 154.992 154.425  0.00  0.00    -0.357 N 
HETATM    7  C   UNK N   1     168.389 156.451 154.337  0.00  0.00     0.148 C 
HETATM    8  C   UNK N   1     167.189 157.129 155.024  0.00  0.00     0.147 C 
HETATM    9  N   UNK N   1     166.741 156.343 156.163  0.00  0.00    -0.336 N 
HETATM   10  C   UNK N   1     166.723 156.831 157.450  0.00  0.00     0.254 C 
HETATM   11  O   UNK N   1     166.328 156.100 158.350  0.00  0.00    -0.267 OA
ENDROOT
BRANCH  10  12
HETATM   12  C   UNK N   1     167.152 158.222 157.824  0.00  0.00     0.034 A 
HETATM   13  C   UNK N   1     168.436 158.519 158.303  0.00  0.00     0.017 A 
HETATM   14  C   UNK N   1     168.782 159.823 158.663  0.00  0.00     0.003 A 
HETATM   15  C   UNK N   1     167.847 160.852 158.546  0.00  0.00     0.030 A 
HETATM   16  C   UNK N   1     166.561 160.591 158.052  0.00  0.00     0.040 A 
HETATM   17  C   UNK N   1     166.225 159.273 157.700  0.00  0.00     0.047 A 
BRANCH  16  18
HETATM   18  N   UNK N   1     165.616 161.661 157.924  0.00  0.00    -0.292 N 
HETATM   19  C   UNK N   1     164.938 162.265 159.036  0.00  0.00     0.161 A 
HETATM   20  C   UNK N   1     164.046 163.334 158.341  0.00  0.00     0.201 A 
HETATM   21  O   UNK N   1     164.337 163.222 156.993  0.00  0.00    -0.302 OA
HETATM   22  C   UNK N   1     165.234 162.258 156.791  0.00  0.00     0.367 A 
HETATM   23  O   UNK N   1     165.669 161.978 155.687  0.00  0.00    -0.238 OA
ENDBRANCH  16  18
ENDBRANCH  10  12
BRANCH   1  24
HETATM   24  C   UNK N   1     165.004 154.991 155.111  0.00  0.00     0.027 C 
HETATM   25  C   UNK N   1     163.875 154.294 155.849  0.00  0.00     0.007 C 
ENDBRANCH   1  24
TORSDOF 3
ENDMDL
MODEL 3
REMARK VINA RESULT:      -6.2      2.029      3.055
REMARK  3 active torsions:
REMARK  status: ('A' for Active; 'I' for Inactive)
REMARK    1  A    between atoms: C_3  and  C_2 
REMARK       I    between atoms: N_11  and  C_12 
REMARK    2  A    between atoms: C_12  and  C_14 
REMARK    3  A    between atoms: C_18  and  N_19 
ROOT
HETATM    1  C   UNK N   1     166.388 156.110 154.087  0.00  0.00     0.137 C 
HETATM    2  C   UNK N   1     166.673 156.831 155.368  0.00  0.00     0.034 A 
HETATM    3  C   UNK N   1     166.581 158.185 155.605  0.00  0.00     0.028 A 
HETATM    4  C   UNK N   1     166.943 158.359 156.936  0.00  0.00     0.019 A 
HETATM    5  C   UNK N   1     167.235 157.100 157.445  0.00  0.00     0.091 A 
HETATM    6  N   UNK N   1     167.063 156.187 156.477  0.00  0.00    -0.357 N 
HETATM    7  C   UNK N   1     167.262 154.742 156.598  0.00  0.00     0.148 C 
HETATM    8  C   UNK N   1     166.823 153.998 155.323  0.00  0.00     0.147 C 
HETATM    9  N   UNK N   1     167.058 154.820 154.146  0.00  0.00    -0.336 N 
HETATM   10  C   UNK N   1     167.885 154.434 153.116  0.00  0.00     0.254 C 
HETATM   11  O   UNK N   1     168.024 155.188 152.160  0.00  0.00    -0.267 OA
ENDROOT
BRANCH  10  12
HETATM   12  C   UNK N   1     168.629 153.129 153.083  0.00  0.00     0.034 A 
HETATM   13  C   UNK N   1     169.470 152.706 154.122  0.00  0.00     0.017 A 
HETATM   14  C   UNK N   1     170.162 151.496 154.037  0.00  0.00     0.003 A 
HETATM   15  C   UNK N   1     170.017 150.687 152.909  0.00  0.00     0.030 A 
HETATM   16  C   UNK N   1     169.169 151.071 151.862  0.00  0.00     0.040 A 
HETATM   17  C   UNK N   1     168.484 152.295 151.959  0.00  0.00     0.047 A 
BRANCH  16  18
HETATM   18  N   UNK N   1     169.020 150.223 150.717  0.00  0.00    -0.292 N 
HETATM   19  C   UNK N   1     169.593 148.910 150.616  0.00  0.00     0.161 A 
HETATM   20  C   UNK N   1     169.141 148.457 149.197  0.00  0.00     0.201 A 
HETATM   21  O   UNK N   1     168.385 149.509 148.710  0.00  0.00    -0.302 OA
HETATM   22  C   UNK N   1     168.339 150.499 149.600  0.00  0.00     0.367 A 
HETATM   23  O   UNK N   1     167.717 151.531 149.414  0.00  0.00    -0.238 OA
ENDBRANCH  16  18
ENDBRANCH  10  12
BRANCH   1  24
HETATM   24  C   UNK N   1     164.881 155.898 153.918  0.00  0.00     0.027 C 
HETATM   25  C   UNK N   1     164.360 156.480 152.616  0.00  0.00     0.007 C 
ENDBRANCH   1  24
TORSDOF 3
ENDMDL
MODEL 4
REMARK VINA RESULT:      -5.9      4.755      9.657
REMARK  3 active torsions:
REMARK  status: ('A' for Active; 'I' for Inactive)
REMARK    1  A    between atoms: C_3  and  C_2 
REMARK       I    between atoms: N_11  and  C_12 
REMARK    2  A    between atoms: C_12  and  C_14 
REMARK    3  A    between atoms: C_18  and  N_19 
ROOT
HETATM    1  C   UNK N   1     167.104 155.631 153.866  0.00  0.00     0.137 C 
HETATM    2  C   UNK N   1     167.621 154.236 154.037  0.00  0.00     0.034 A 
HETATM    3  C   UNK N   1     168.368 153.504 153.139  0.00  0.00     0.028 A 
HETATM    4  C   UNK N   1     168.601 152.279 153.755  0.00  0.00     0.019 A 
HETATM    5  C   UNK N   1     167.986 152.327 155.000  0.00  0.00     0.091 A 
HETATM    6  N   UNK N   1     167.400 153.524 155.151  0.00  0.00    -0.357 N 
HETATM    7  C   UNK N   1     166.649 153.984 156.320  0.00  0.00     0.148 C 
HETATM    8  C   UNK N   1     166.252 155.467 156.195  0.00  0.00     0.147 C 
HETATM    9  N   UNK N   1     166.007 155.814 154.804  0.00  0.00    -0.336 N 
HETATM   10  C   UNK N   1     164.795 156.285 154.351  0.00  0.00     0.254 C 
HETATM   11  O   UNK N   1     164.677 156.556 153.162  0.00  0.00    -0.267 OA
ENDROOT
BRANCH  10  12
HETATM   12  C   UNK N   1     163.599 156.502 155.233  0.00  0.00     0.034 A 
HETATM   13  C   UNK N   1     162.870 155.447 155.801  0.00  0.00     0.017 A 
HETATM   14  C   UNK N   1     161.749 155.696 156.594  0.00  0.00     0.003 A 
HETATM   15  C   UNK N   1     161.341 157.008 156.836  0.00  0.00     0.030 A 
HETATM   16  C   UNK N   1     162.059 158.085 156.300  0.00  0.00     0.040 A 
HETATM   17  C   UNK N   1     163.182 157.820 155.498  0.00  0.00     0.047 A 
BRANCH  16  18
HETATM   18  N   UNK N   1     161.635 159.428 156.569  0.00  0.00    -0.292 N 
HETATM   19  C   UNK N   1     162.254 160.281 157.545  0.00  0.00     0.161 A 
HETATM   20  C   UNK N   1     161.411 161.583 157.432  0.00  0.00     0.201 A 
HETATM   21  O   UNK N   1     160.484 161.325 156.438  0.00  0.00    -0.302 OA
HETATM   22  C   UNK N   1     160.639 160.087 155.970  0.00  0.00     0.367 A 
HETATM   23  O   UNK N   1     159.953 159.627 155.072  0.00  0.00    -0.238 OA
ENDBRANCH  16  18
ENDBRANCH  10  12
BRANCH   1  24
HETATM   24  C   UNK N   1     168.208 156.649 154.162  0.00  0.00     0.027 C 
HETATM   25  C   UNK N   1     168.672 157.375 152.913  0.00  0.00     0.007 C 
ENDBRANCH   1  24
TORSDOF 3
ENDMDL
MODEL 5
REMARK VINA RESULT:      -5.8      4.828      7.313
REMARK  3 active torsions:
REMARK  status: ('A' for Active; 'I' for Inactive)
REMARK    1  A    between atoms: C_3  and  C_2 
REMARK       I    between atoms: N_11  and  C_12 
REMARK    2  A    between atoms: C_12  and  C_14 
REMARK    3  A    between atoms: C_18  and  N_19 
ROOT
HETATM    1  C   UNK N   1     165.297 159.570 158.770  0.00  0.00     0.137 C 
HETATM    2  C   UNK N   1     164.821 160.986 158.661  0.00  0.00     0.034 A 
HETATM    3  C   UNK N   1     164.078 161.692 159.581  0.00  0.00     0.028 A 
HETATM    4  C   UNK N   1     163.893 162.954 159.027  0.00  0.00     0.019 A 
HETATM    5  C   UNK N   1     164.537 162.954 157.795  0.00  0.00     0.091 A 
HETATM    6  N   UNK N   1     165.094 161.750 157.595  0.00  0.00    -0.357 N 
HETATM    7  C   UNK N   1     165.867 161.333 156.423  0.00  0.00     0.148 C 
HETATM    8  C   UNK N   1     166.476 159.932 156.612  0.00  0.00     0.147 C 
HETATM    9  N   UNK N   1     165.603 159.101 157.427  0.00  0.00    -0.336 N 
HETATM   10  C   UNK N   1     165.057 157.921 156.977  0.00  0.00     0.254 C 
HETATM   11  O   UNK N   1     164.333 157.283 157.731  0.00  0.00    -0.267 OA
ENDROOT
BRANCH  10  12
HETATM   12  C   UNK N   1     165.303 157.353 155.607  0.00  0.00     0.034 A 
HETATM   13  C   UNK N   1     164.464 157.614 154.514  0.00  0.00     0.017 A 
HETATM   14  C   UNK N   1     164.718 157.044 153.265  0.00  0.00     0.003 A 
HETATM   15  C   UNK N   1     165.819 156.205 153.090  0.00  0.00     0.030 A 
HETATM   16  C   UNK N   1     166.687 155.940 154.158  0.00  0.00     0.040 A 
HETATM   17  C   UNK N   1     166.416 156.516 155.411  0.00  0.00     0.047 A 
BRANCH  16  18
HETATM   18  N   UNK N   1     167.822 155.088 153.959  0.00  0.00    -0.292 N 
HETATM   19  C   UNK N   1     167.795 153.664 154.146  0.00  0.00     0.161 A 
HETATM   20  C   UNK N   1     169.260 153.257 153.816  0.00  0.00     0.201 A 
HETATM   21  O   UNK N   1     169.893 154.440 153.476  0.00  0.00    -0.302 OA
HETATM   22  C   UNK N   1     169.045 155.463 153.571  0.00  0.00     0.367 A 
HETATM   23  O   UNK N   1     169.358 156.611 153.303  0.00  0.00    -0.238 OA
ENDBRANCH  16  18
ENDBRANCH  10  12
BRANCH   1  24
HETATM   24  C   UNK N   1     166.555 159.496 159.639  0.00  0.00     0.027 C 
HETATM   25  C   UNK N   1     166.814 158.094 160.160  0.00  0.00     0.007 C 
ENDBRANCH   1  24
TORSDOF 3
ENDMDL
MODEL 6
REMARK VINA RESULT:      -5.8     12.344     14.087
REMARK  3 active torsions:
REMARK  status: ('A' for Active; 'I' for Inactive)
REMARK    1  A    between atoms: C_3  and  C_2 
REMARK       I    between atoms: N_11  and  C_12 
REMARK    2  A    between atoms: C_12  and  C_14 
REMARK    3  A    between atoms: C_18  and  N_19 
ROOT
HETATM    1  C   UNK N   1     158.001 145.107 161.250  0.00  0.00     0.137 C 
HETATM    2  C   UNK N   1     159.105 145.614 162.125  0.00  0.00     0.034 A 
HETATM    3  C   UNK N   1     159.281 145.380 163.472  0.00  0.00     0.028 A 
HETATM    4  C   UNK N   1     160.442 146.059 163.823  0.00  0.00     0.019 A 
HETATM    5  C   UNK N   1     160.919 146.671 162.670  0.00  0.00     0.091 A 
HETATM    6  N   UNK N   1     160.093 146.386 161.652  0.00  0.00    -0.357 N 
HETATM    7  C   UNK N   1     160.235 146.833 160.266  0.00  0.00     0.148 C 
HETATM    8  C   UNK N   1     159.182 146.185 159.348  0.00  0.00     0.147 C 
HETATM    9  N   UNK N   1     157.941 145.960 160.073  0.00  0.00    -0.336 N 
HETATM   10  C   UNK N   1     156.743 146.526 159.702  0.00  0.00     0.254 C 
HETATM   11  O   UNK N   1     155.745 146.280 160.370  0.00  0.00    -0.267 OA
ENDROOT
BRANCH  10  12
HETATM   12  C   UNK N   1     156.575 147.426 158.511  0.00  0.00     0.034 A 
HETATM   13  C   UNK N   1     156.536 148.824 158.614  0.00  0.00     0.017 A 
HETATM   14  C   UNK N   1     156.352 149.621 157.482  0.00  0.00     0.003 A 
HETATM   15  C   UNK N   1     156.209 149.029 156.226  0.00  0.00     0.030 A 
HETATM   16  C   UNK N   1     156.263 147.636 156.088  0.00  0.00     0.040 A 
HETATM   17  C   UNK N   1     156.442 146.846 157.236  0.00  0.00     0.047 A 
BRANCH  16  18
HETATM   18  N   UNK N   1     156.128 147.043 154.789  0.00  0.00    -0.292 N 
HETATM   19  C   UNK N   1     154.886 146.558 154.257  0.00  0.00     0.161 A 
HETATM   20  C   UNK N   1     155.308 146.021 152.860  0.00  0.00     0.201 A 
HETATM   21  O   UNK N   1     156.665 146.280 152.772  0.00  0.00    -0.302 OA
HETATM   22  C   UNK N   1     157.100 146.860 153.890  0.00  0.00     0.367 A 
HETATM   23  O   UNK N   1     158.258 147.206 154.050  0.00  0.00    -0.238 OA
ENDBRANCH  16  18
ENDBRANCH  10  12
BRANCH   1  24
HETATM   24  C   UNK N   1     158.279 143.663 160.824  0.00  0.00     0.027 C 
HETATM   25  C   UNK N   1     157.435 142.663 161.593  0.00  0.00     0.007 C 
ENDBRANCH   1  24
TORSDOF 3
ENDMDL
MODEL 7
REMARK VINA RESULT:      -5.6     12.570     14.501
REMARK  3 active torsions:
REMARK  status: ('A' for Active; 'I' for Inactive)
REMARK    1  A    between atoms: C_3  and  C_2 
REMARK       I    between atoms: N_11  and  C_12 
REMARK    2  A    between atoms: C_12  and  C_14 
REMARK    3  A    between atoms: C_18  and  N_19 
ROOT
HETATM    1  C   UNK N   1     157.810 146.903 157.977  0.00  0.00     0.137 C 
HETATM    2  C   UNK N   1     156.750 147.955 157.861  0.00  0.00     0.034 A 
HETATM    3  C   UNK N   1     156.603 148.887 156.857  0.00  0.00     0.028 A 
HETATM    4  C   UNK N   1     155.478 149.631 157.196  0.00  0.00     0.019 A 
HETATM    5  C   UNK N   1     154.994 149.111 158.391  0.00  0.00     0.091 A 
HETATM    6  N   UNK N   1     155.780 148.093 158.774  0.00  0.00    -0.357 N 
HETATM    7  C   UNK N   1     155.616 147.272 159.975  0.00  0.00     0.148 C 
HETATM    8  C   UNK N   1     156.619 146.104 160.006  0.00  0.00     0.147 C 
HETATM    9  N   UNK N   1     157.869 146.486 159.369  0.00  0.00    -0.336 N 
HETATM   10  C   UNK N   1     159.078 146.482 160.028  0.00  0.00     0.254 C 
HETATM   11  O   UNK N   1     160.083 146.817 159.414  0.00  0.00    -0.267 OA
ENDROOT
BRANCH  10  12
HETATM   12  C   UNK N   1     159.247 146.078 161.466  0.00  0.00     0.034 A 
HETATM   13  C   UNK N   1     158.640 144.937 162.011  0.00  0.00     0.017 A 
HETATM   14  C   UNK N   1     158.804 144.614 163.359  0.00  0.00     0.003 A 
HETATM   15  C   UNK N   1     159.584 145.427 164.183  0.00  0.00     0.030 A 
HETATM   16  C   UNK N   1     160.219 146.563 163.664  0.00  0.00     0.040 A 
HETATM   17  C   UNK N   1     160.040 146.880 162.307  0.00  0.00     0.047 A 
BRANCH  16  18
HETATM   18  N   UNK N   1     161.028 147.381 164.520  0.00  0.00    -0.292 N 
HETATM   19  C   UNK N   1     160.494 148.306 165.480  0.00  0.00     0.161 A 
HETATM   20  C   UNK N   1     161.780 148.918 166.104  0.00  0.00     0.201 A 
HETATM   21  O   UNK N   1     162.828 148.275 165.468  0.00  0.00    -0.302 OA
HETATM   22  C   UNK N   1     162.363 147.408 164.570  0.00  0.00     0.367 A 
HETATM   23  O   UNK N   1     163.090 146.703 163.891  0.00  0.00    -0.238 OA
ENDBRANCH  16  18
ENDBRANCH  10  12
BRANCH   1  24
HETATM   24  C   UNK N   1     157.466 145.700 157.095  0.00  0.00     0.027 C 
HETATM   25  C   UNK N   1     158.438 145.535 155.941  0.00  0.00     0.007 C 
ENDBRANCH   1  24
TORSDOF 3
ENDMDL
MODEL 8
REMARK VINA RESULT:      -5.6     12.427     14.575
REMARK  3 active torsions:
REMARK  status: ('A' for Active; 'I' for Inactive)
REMARK    1  A    between atoms: C_3  and  C_2 
REMARK       I    between atoms: N_11  and  C_12 
REMARK    2  A    between atoms: C_12  and  C_14 
REMARK    3  A    between atoms: C_18  and  N_19 
ROOT
HETATM    1  C   UNK N   1     157.153 144.616 152.486  0.00  0.00     0.137 C 
HETATM    2  C   UNK N   1     156.306 145.057 151.332  0.00  0.00     0.034 A 
HETATM    3  C   UNK N   1     156.530 144.822 149.993  0.00  0.00     0.028 A 
HETATM    4  C   UNK N   1     155.471 145.426 149.323  0.00  0.00     0.019 A 
HETATM    5  C   UNK N   1     154.652 145.996 150.290  0.00  0.00     0.091 A 
HETATM    6  N   UNK N   1     155.177 145.758 151.501  0.00  0.00    -0.357 N 
HETATM    7  C   UNK N   1     154.624 146.183 152.788  0.00  0.00     0.148 C 
HETATM    8  C   UNK N   1     155.419 145.599 153.971  0.00  0.00     0.147 C 
HETATM    9  N   UNK N   1     156.824 145.462 153.623  0.00  0.00    -0.336 N 
HETATM   10  C   UNK N   1     157.831 146.103 154.309  0.00  0.00     0.254 C 
HETATM   11  O   UNK N   1     158.989 145.929 153.950  0.00  0.00    -0.267 OA
ENDROOT
BRANCH  10  12
HETATM   12  C   UNK N   1     157.600 147.003 155.490  0.00  0.00     0.034 A 
HETATM   13  C   UNK N   1     157.072 148.296 155.368  0.00  0.00     0.017 A 
HETATM   14  C   UNK N   1     156.898 149.107 156.492  0.00  0.00     0.003 A 
HETATM   15  C   UNK N   1     157.246 148.633 157.757  0.00  0.00     0.030 A 
HETATM   16  C   UNK N   1     157.757 147.337 157.914  0.00  0.00     0.040 A 
HETATM   17  C   UNK N   1     157.934 146.535 156.774  0.00  0.00     0.047 A 
BRANCH  16  18
HETATM   18  N   UNK N   1     158.097 146.859 159.222  0.00  0.00    -0.292 N 
HETATM   19  C   UNK N   1     159.441 146.589 159.650  0.00  0.00     0.161 A 
HETATM   20  C   UNK N   1     159.233 146.095 161.110  0.00  0.00     0.201 A 
HETATM   21  O   UNK N   1     157.867 146.169 161.322  0.00  0.00    -0.302 OA
HETATM   22  C   UNK N   1     157.250 146.605 160.225  0.00  0.00     0.367 A 
HETATM   23  O   UNK N   1     156.044 146.775 160.165  0.00  0.00    -0.238 OA
ENDBRANCH  16  18
ENDBRANCH  10  12
BRANCH   1  24
HETATM   24  C   UNK N   1     156.862 143.154 152.833  0.00  0.00     0.027 C 
HETATM   25  C   UNK N   1     158.110 142.291 152.783  0.00  0.00     0.007 C 
ENDBRANCH   1  24
TORSDOF 3
ENDMDL
MODEL 9
REMARK VINA RESULT:      -5.5      8.901     13.349
REMARK  3 active torsions:
REMARK  status: ('A' for Active; 'I' for Inactive)
REMARK    1  A    between atoms: C_3  and  C_2 
REMARK       I    between atoms: N_11  and  C_12 
REMARK    2  A    between atoms: C_12  and  C_14 
REMARK    3  A    between atoms: C_18  and  N_19 
ROOT
HETATM    1  C   UNK N   1     161.625 159.268 156.479  0.00  0.00     0.137 C 
HETATM    2  C   UNK N   1     162.086 157.850 156.335  0.00  0.00     0.034 A 
HETATM    3  C   UNK N   1     163.241 157.404 155.731  0.00  0.00     0.028 A 
HETATM    4  C   UNK N   1     163.219 156.019 155.854  0.00  0.00     0.019 A 
HETATM    5  C   UNK N   1     162.050 155.691 156.530  0.00  0.00     0.091 A 
HETATM    6  N   UNK N   1     161.379 156.818 156.814  0.00  0.00    -0.357 N 
HETATM    7  C   UNK N   1     160.101 156.915 157.521  0.00  0.00     0.148 C 
HETATM    8  C   UNK N   1     159.712 158.379 157.795  0.00  0.00     0.147 C 
HETATM    9  N   UNK N   1     160.191 159.244 156.727  0.00  0.00    -0.336 N 
HETATM   10  C   UNK N   1     159.353 160.010 155.951  0.00  0.00     0.254 C 
HETATM   11  O   UNK N   1     159.842 160.712 155.074  0.00  0.00    -0.267 OA
ENDROOT
BRANCH  10  12
HETATM   12  C   UNK N   1     157.860 160.051 156.119  0.00  0.00     0.034 A 
HETATM   13  C   UNK N   1     157.212 160.991 156.934  0.00  0.00     0.017 A 
HETATM   14  C   UNK N   1     155.824 160.975 157.081  0.00  0.00     0.003 A 
HETATM   15  C   UNK N   1     155.060 160.020 156.408  0.00  0.00     0.030 A 
HETATM   16  C   UNK N   1     155.676 159.081 155.570  0.00  0.00     0.040 A 
HETATM   17  C   UNK N   1     157.075 159.103 155.437  0.00  0.00     0.047 A 
BRANCH  16  18
HETATM   18  N   UNK N   1     154.877 158.115 154.875  0.00  0.00    -0.292 N 
HETATM   19  C   UNK N   1     154.101 157.099 155.529  0.00  0.00     0.161 A 
HETATM   20  C   UNK N   1     153.462 156.343 154.330  0.00  0.00     0.201 A 
HETATM   21  O   UNK N   1     153.915 157.009 153.204  0.00  0.00    -0.302 OA
HETATM   22  C   UNK N   1     154.721 158.011 153.551  0.00  0.00     0.367 A 
HETATM   23  O   UNK N   1     155.233 158.762 152.738  0.00  0.00    -0.238 OA
ENDBRANCH  16  18
ENDBRANCH  10  12
BRANCH   1  24
HETATM   24  C   UNK N   1     162.337 159.943 157.653  0.00  0.00     0.027 C 
HETATM   25  C   UNK N   1     162.556 161.427 157.418  0.00  0.00     0.007 C 
ENDBRANCH   1  24
TORSDOF 3
ENDMDL
