MODEL 1
REMARK VINA RESULT:      -6.1      0.000      0.000
REMARK  2 active torsions:
REMARK  status: ('A' for Active; 'I' for Inactive)
REMARK    1  A    between atoms: C_5  and  C_6 
REMARK       I    between atoms: C_6  and  N_8 
REMARK    2  A    between atoms: N_11  and  C_12 
ROOT
HETATM    1  C   UNK N   1     166.429 154.962 154.720  0.00  0.00     0.051 A 
HETATM    2  C   UNK N   1     167.208 153.797 154.670  0.00  0.00     0.031 A 
HETATM    3  C   UNK N   1     167.922 153.465 153.531  0.00  0.00     0.002 A 
HETATM    4  C   UNK N   1     167.870 154.299 152.418  0.00  0.00     0.002 A 
HETATM    5  C   UNK N   1     167.097 155.462 152.443  0.00  0.00     0.025 A 
HETATM    6  C   UNK N   1     166.371 155.805 153.582  0.00  0.00     0.071 A 
HETATM    7  C   UNK N   1     165.587 157.013 153.535  0.00  0.00     0.102 C 
HETATM    8  N   UNK N   1     164.962 157.986 153.478  0.00  0.00    -0.191 NA
ENDROOT
BRANCH   1   9
HETATM    9  N   UNK N   1     165.718 155.239 155.917  0.00  0.00    -0.377 N 
HETATM   10  C   UNK N   1     166.440 155.699 157.077  0.00  0.00     0.143 C 
HETATM   11  C   UNK N   1     165.936 157.081 157.471  0.00  0.00     0.145 C 
HETATM   12  N   UNK N   1     164.590 157.334 156.958  0.00  0.00    -0.347 N 
HETATM   13  C   UNK N   1     164.171 158.597 156.689  0.00  0.00     0.249 C 
HETATM   14  C   UNK N   1     163.663 156.242 156.798  0.00  0.00     0.145 C 
HETATM   15  O   UNK N   1     163.055 158.809 156.248  0.00  0.00    -0.270 OA
HETATM   16  C   UNK N   1     164.281 155.115 156.006  0.00  0.00     0.143 C 
BRANCH  13  17
HETATM   17  C   UNK N   1     165.010 159.730 157.034  0.00  0.00     0.214 C 
HETATM   18  C   UNK N   1     164.123 160.800 157.591  0.00  0.00     0.044 C 
HETATM   19  C   UNK N   1     164.997 162.009 157.420  0.00  0.00     0.034 C 
HETATM   20  C   UNK N   1     166.135 161.483 156.561  0.00  0.00     0.118 C 
HETATM   21  C   UNK N   1     167.299 161.072 157.476  0.00  0.00     0.039 C 
HETATM   22  O   UNK N   1     165.630 160.335 155.941  0.00  0.00    -0.372 OA
ENDBRANCH  13  17
ENDBRANCH   1   9
TORSDOF 2
ENDMDL
MODEL 2
REMARK VINA RESULT:      -5.6      1.115      2.274
REMARK  2 active torsions:
REMARK  status: ('A' for Active; 'I' for Inactive)
REMARK    1  A    between atoms: C_5  and  C_6 
REMARK       I    between atoms: C_6  and  N_8 
REMARK    2  A    between atoms: N_11  and  C_12 
ROOT
HETATM    1  C   UNK N   1     166.760 154.704 154.652  0.00  0.00     0.051 A 
HETATM    2  C   UNK N   1     166.423 155.617 153.642  0.00  0.00     0.031 A 
HETATM    3  C   UNK N   1     166.905 155.465 152.353  0.00  0.00     0.002 A 
HETATM    4  C   UNK N   1     167.735 154.390 152.051  0.00  0.00     0.002 A 
HETATM    5  C   UNK N   1     168.088 153.471 153.041  0.00  0.00     0.025 A 
HETATM    6  C   UNK N   1     167.613 153.615 154.342  0.00  0.00     0.071 A 
HETATM    7  C   UNK N   1     168.026 152.636 155.316  0.00  0.00     0.102 C 
HETATM    8  N   UNK N   1     168.368 151.840 156.084  0.00  0.00    -0.191 NA
ENDROOT
BRANCH   1   9
HETATM    9  N   UNK N   1     166.235 154.922 155.953  0.00  0.00    -0.377 N 
HETATM   10  C   UNK N   1     167.074 155.518 156.962  0.00  0.00     0.143 C 
HETATM   11  C   UNK N   1     166.454 156.830 157.424  0.00  0.00     0.145 C 
HETATM   12  N   UNK N   1     165.018 156.876 157.154  0.00  0.00    -0.347 N 
HETATM   13  C   UNK N   1     164.382 158.058 156.950  0.00  0.00     0.249 C 
HETATM   14  C   UNK N   1     164.243 155.661 157.171  0.00  0.00     0.145 C 
HETATM   15  O   UNK N   1     163.188 158.098 156.711  0.00  0.00    -0.270 OA
HETATM   16  C   UNK N   1     164.868 154.604 156.295  0.00  0.00     0.143 C 
BRANCH  13  17
HETATM   17  C   UNK N   1     165.099 159.309 157.129  0.00  0.00     0.214 C 
HETATM   18  C   UNK N   1     164.117 160.329 157.616  0.00  0.00     0.044 C 
HETATM   19  C   UNK N   1     164.837 161.600 157.273  0.00  0.00     0.034 C 
HETATM   20  C   UNK N   1     165.994 161.112 156.417  0.00  0.00     0.118 C 
HETATM   21  C   UNK N   1     167.233 160.935 157.309  0.00  0.00     0.039 C 
HETATM   22  O   UNK N   1     165.601 159.853 155.948  0.00  0.00    -0.372 OA
ENDBRANCH  13  17
ENDBRANCH   1   9
TORSDOF 2
ENDMDL
MODEL 3
REMARK VINA RESULT:      -5.6      3.606      5.607
REMARK  2 active torsions:
REMARK  status: ('A' for Active; 'I' for Inactive)
REMARK    1  A    between atoms: C_5  and  C_6 
REMARK       I    between atoms: C_6  and  N_8 
REMARK    2  A    between atoms: N_11  and  C_12 
ROOT
HETATM    1  C   UNK N   1     166.605 156.897 155.466  0.00  0.00     0.051 A 
HETATM    2  C   UNK N   1     166.534 158.012 154.618  0.00  0.00     0.031 A 
HETATM    3  C   UNK N   1     165.579 158.088 153.619  0.00  0.00     0.002 A 
HETATM    4  C   UNK N   1     164.674 157.045 153.451  0.00  0.00     0.002 A 
HETATM    5  C   UNK N   1     164.728 155.923 154.280  0.00  0.00     0.025 A 
HETATM    6  C   UNK N   1     165.687 155.833 155.287  0.00  0.00     0.071 A 
HETATM    7  C   UNK N   1     165.692 154.642 156.099  0.00  0.00     0.102 C 
HETATM    8  N   UNK N   1     165.681 153.678 156.739  0.00  0.00    -0.191 NA
ENDROOT
BRANCH   1   9
HETATM    9  N   UNK N   1     167.611 156.882 156.467  0.00  0.00    -0.377 N 
HETATM   10  C   UNK N   1     167.496 157.768 157.599  0.00  0.00     0.143 C 
HETATM   11  C   UNK N   1     167.416 156.946 158.878  0.00  0.00     0.145 C 
HETATM   12  N   UNK N   1     167.982 155.610 158.700  0.00  0.00    -0.347 N 
HETATM   13  C   UNK N   1     167.548 154.562 159.447  0.00  0.00     0.249 C 
HETATM   14  C   UNK N   1     169.066 155.405 157.773  0.00  0.00     0.145 C 
HETATM   15  O   UNK N   1     168.009 153.445 159.291  0.00  0.00    -0.270 OA
HETATM   16  C   UNK N   1     168.736 155.976 156.415  0.00  0.00     0.143 C 
BRANCH  13  17
HETATM   17  C   UNK N   1     166.605 154.782 160.529  0.00  0.00     0.214 C 
HETATM   18  C   UNK N   1     167.003 153.894 161.666  0.00  0.00     0.044 C 
HETATM   19  C   UNK N   1     165.723 153.847 162.450  0.00  0.00     0.034 C 
HETATM   20  C   UNK N   1     164.727 154.502 161.507  0.00  0.00     0.118 C 
HETATM   21  C   UNK N   1     164.609 155.992 161.866  0.00  0.00     0.039 C 
HETATM   22  O   UNK N   1     165.298 154.396 160.234  0.00  0.00    -0.372 OA
ENDBRANCH  13  17
ENDBRANCH   1   9
TORSDOF 2
ENDMDL
MODEL 4
REMARK VINA RESULT:      -5.4      2.964      4.369
REMARK  2 active torsions:
REMARK  status: ('A' for Active; 'I' for Inactive)
REMARK    1  A    between atoms: C_5  and  C_6 
REMARK       I    between atoms: C_6  and  N_8 
REMARK    2  A    between atoms: N_11  and  C_12 
ROOT
HETATM    1  C   UNK N   1     167.671 155.731 155.806  0.00  0.00     0.051 A 
HETATM    2  C   UNK N   1     168.693 156.408 155.127  0.00  0.00     0.031 A 
HETATM    3  C   UNK N   1     169.050 156.055 153.837  0.00  0.00     0.002 A 
HETATM    4  C   UNK N   1     168.384 155.011 153.201  0.00  0.00     0.002 A 
HETATM    5  C   UNK N   1     167.366 154.319 153.858  0.00  0.00     0.025 A 
HETATM    6  C   UNK N   1     167.000 154.664 155.158  0.00  0.00     0.071 A 
HETATM    7  C   UNK N   1     165.948 153.900 155.780  0.00  0.00     0.102 C 
HETATM    8  N   UNK N   1     165.102 153.275 156.263  0.00  0.00    -0.191 NA
ENDROOT
BRANCH   1   9
HETATM    9  N   UNK N   1     167.359 156.142 157.128  0.00  0.00    -0.377 N 
HETATM   10  C   UNK N   1     166.738 157.426 157.342  0.00  0.00     0.143 C 
HETATM   11  C   UNK N   1     165.380 157.226 158.001  0.00  0.00     0.145 C 
HETATM   12  N   UNK N   1     165.296 155.940 158.693  0.00  0.00    -0.347 N 
HETATM   13  C   UNK N   1     164.105 155.310 158.856  0.00  0.00     0.249 C 
HETATM   14  C   UNK N   1     166.479 155.359 159.277  0.00  0.00     0.145 C 
HETATM   15  O   UNK N   1     164.035 154.232 159.420  0.00  0.00    -0.270 OA
HETATM   16  C   UNK N   1     167.607 155.299 158.276  0.00  0.00     0.143 C 
BRANCH  13  17
HETATM   17  C   UNK N   1     162.874 155.970 158.459  0.00  0.00     0.214 C 
HETATM   18  C   UNK N   1     161.831 155.637 159.481  0.00  0.00     0.044 C 
HETATM   19  C   UNK N   1     160.577 155.932 158.710  0.00  0.00     0.034 C 
HETATM   20  C   UNK N   1     161.091 156.138 157.295  0.00  0.00     0.118 C 
HETATM   21  C   UNK N   1     161.302 157.642 157.057  0.00  0.00     0.039 C 
HETATM   22  O   UNK N   1     162.338 155.504 157.259  0.00  0.00    -0.372 OA
ENDBRANCH  13  17
ENDBRANCH   1   9
TORSDOF 2
ENDMDL
MODEL 5
REMARK VINA RESULT:      -5.4      1.702      2.579
REMARK  2 active torsions:
REMARK  status: ('A' for Active; 'I' for Inactive)
REMARK    1  A    between atoms: C_5  and  C_6 
REMARK       I    between atoms: C_6  and  N_8 
REMARK    2  A    between atoms: N_11  and  C_12 
ROOT
HETATM    1  C   UNK N   1     166.197 156.126 155.034  0.00  0.00     0.051 A 
HETATM    2  C   UNK N   1     166.463 157.383 154.471  0.00  0.00     0.031 A 
HETATM    3  C   UNK N   1     167.551 157.577 153.638  0.00  0.00     0.002 A 
HETATM    4  C   UNK N   1     168.397 156.509 153.352  0.00  0.00     0.002 A 
HETATM    5  C   UNK N   1     168.156 155.250 153.904  0.00  0.00     0.025 A 
HETATM    6  C   UNK N   1     167.065 155.043 154.746  0.00  0.00     0.071 A 
HETATM    7  C   UNK N   1     166.883 153.721 155.289  0.00  0.00     0.102 C 
HETATM    8  N   UNK N   1     166.753 152.653 155.716  0.00  0.00    -0.191 NA
ENDROOT
BRANCH   1   9
HETATM    9  N   UNK N   1     165.067 155.999 155.882  0.00  0.00    -0.377 N 
HETATM   10  C   UNK N   1     165.212 156.245 157.295  0.00  0.00     0.143 C 
HETATM   11  C   UNK N   1     164.314 157.406 157.701  0.00  0.00     0.145 C 
HETATM   12  N   UNK N   1     163.217 157.599 156.754  0.00  0.00    -0.347 N 
HETATM   13  C   UNK N   1     162.656 158.822 156.574  0.00  0.00     0.249 C 
HETATM   14  C   UNK N   1     162.668 156.469 156.047  0.00  0.00     0.145 C 
HETATM   15  O   UNK N   1     161.751 158.989 155.776  0.00  0.00    -0.270 OA
HETATM   16  C   UNK N   1     163.755 155.668 155.373  0.00  0.00     0.143 C 
BRANCH  13  17
HETATM   17  C   UNK N   1     163.051 159.934 157.421  0.00  0.00     0.214 C 
HETATM   18  C   UNK N   1     161.837 160.778 157.657  0.00  0.00     0.044 C 
HETATM   19  C   UNK N   1     162.471 162.073 158.076  0.00  0.00     0.034 C 
HETATM   20  C   UNK N   1     163.941 161.844 157.766  0.00  0.00     0.118 C 
HETATM   21  C   UNK N   1     164.649 161.364 159.043  0.00  0.00     0.039 C 
HETATM   22  O   UNK N   1     163.964 160.806 156.829  0.00  0.00    -0.372 OA
ENDBRANCH  13  17
ENDBRANCH   1   9
TORSDOF 2
ENDMDL
MODEL 6
REMARK VINA RESULT:      -5.4      7.761      9.934
REMARK  2 active torsions:
REMARK  status: ('A' for Active; 'I' for Inactive)
REMARK    1  A    between atoms: C_5  and  C_6 
REMARK       I    between atoms: C_6  and  N_8 
REMARK    2  A    between atoms: N_11  and  C_12 
ROOT
HETATM    1  C   UNK N   1     154.890 157.202 157.966  0.00  0.00     0.051 A 
HETATM    2  C   UNK N   1     154.319 156.119 158.649  0.00  0.00     0.031 A 
HETATM    3  C   UNK N   1     153.818 155.026 157.963  0.00  0.00     0.002 A 
HETATM    4  C   UNK N   1     153.881 154.999 156.573  0.00  0.00     0.002 A 
HETATM    5  C   UNK N   1     154.440 156.068 155.871  0.00  0.00     0.025 A 
HETATM    6  C   UNK N   1     154.945 157.175 156.550  0.00  0.00     0.071 A 
HETATM    7  C   UNK N   1     155.498 158.247 155.762  0.00  0.00     0.102 C 
HETATM    8  N   UNK N   1     155.937 159.098 155.112  0.00  0.00    -0.191 NA
ENDROOT
BRANCH   1   9
HETATM    9  N   UNK N   1     155.380 158.292 158.732  0.00  0.00    -0.377 N 
HETATM   10  C   UNK N   1     156.653 158.172 159.397  0.00  0.00     0.143 C 
HETATM   11  C   UNK N   1     157.605 159.233 158.861  0.00  0.00     0.145 C 
HETATM   12  N   UNK N   1     156.884 160.356 158.263  0.00  0.00    -0.347 N 
HETATM   13  C   UNK N   1     157.444 161.099 157.274  0.00  0.00     0.249 C 
HETATM   14  C   UNK N   1     155.589 160.733 158.771  0.00  0.00     0.145 C 
HETATM   15  O   UNK N   1     156.840 162.026 156.764  0.00  0.00    -0.270 OA
HETATM   16  C   UNK N   1     154.664 159.543 158.838  0.00  0.00     0.143 C 
BRANCH  13  17
HETATM   17  C   UNK N   1     158.825 160.870 156.886  0.00  0.00     0.214 C 
HETATM   18  C   UNK N   1     159.563 162.161 157.054  0.00  0.00     0.044 C 
HETATM   19  C   UNK N   1     160.758 161.919 156.177  0.00  0.00     0.034 C 
HETATM   20  C   UNK N   1     160.387 160.637 155.449  0.00  0.00     0.118 C 
HETATM   21  C   UNK N   1     160.999 159.444 156.200  0.00  0.00     0.039 C 
HETATM   22  O   UNK N   1     158.994 160.551 155.539  0.00  0.00    -0.372 OA
ENDBRANCH  13  17
ENDBRANCH   1   9
TORSDOF 2
ENDMDL
MODEL 7
REMARK VINA RESULT:      -5.3     12.769     14.726
REMARK  2 active torsions:
REMARK  status: ('A' for Active; 'I' for Inactive)
REMARK    1  A    between atoms: C_5  and  C_6 
REMARK       I    between atoms: C_6  and  N_8 
REMARK    2  A    between atoms: N_11  and  C_12 
ROOT
HETATM    1  C   UNK N   1     159.987 145.987 161.640  0.00  0.00     0.051 A 
HETATM    2  C   UNK N   1     160.645 146.860 160.763  0.00  0.00     0.031 A 
HETATM    3  C   UNK N   1     161.794 147.528 161.148  0.00  0.00     0.002 A 
HETATM    4  C   UNK N   1     162.309 147.331 162.426  0.00  0.00     0.002 A 
HETATM    5  C   UNK N   1     161.669 146.469 163.319  0.00  0.00     0.025 A 
HETATM    6  C   UNK N   1     160.510 145.794 162.944  0.00  0.00     0.071 A 
HETATM    7  C   UNK N   1     159.896 144.929 163.919  0.00  0.00     0.102 C 
HETATM    8  N   UNK N   1     159.417 144.240 164.716  0.00  0.00    -0.191 NA
ENDROOT
BRANCH   1   9
HETATM    9  N   UNK N   1     158.811 145.338 161.182  0.00  0.00    -0.377 N 
HETATM   10  C   UNK N   1     157.531 145.973 161.378  0.00  0.00     0.143 C 
HETATM   11  C   UNK N   1     156.884 146.235 160.025  0.00  0.00     0.145 C 
HETATM   12  N   UNK N   1     157.423 145.356 158.987  0.00  0.00    -0.347 N 
HETATM   13  C   UNK N   1     157.440 145.741 157.686  0.00  0.00     0.249 C 
HETATM   14  C   UNK N   1     157.879 144.032 159.330  0.00  0.00     0.145 C 
HETATM   15  O   UNK N   1     157.901 145.016 156.821  0.00  0.00    -0.270 OA
HETATM   16  C   UNK N   1     158.851 144.073 160.484  0.00  0.00     0.143 C 
BRANCH  13  17
HETATM   17  C   UNK N   1     156.801 146.982 157.286  0.00  0.00     0.214 C 
HETATM   18  C   UNK N   1     155.696 146.639 156.337  0.00  0.00     0.044 C 
HETATM   19  C   UNK N   1     155.489 147.960 155.654  0.00  0.00     0.034 C 
HETATM   20  C   UNK N   1     156.676 148.778 156.136  0.00  0.00     0.118 C 
HETATM   21  C   UNK N   1     156.243 149.612 157.352  0.00  0.00     0.039 C 
HETATM   22  O   UNK N   1     157.625 147.839 156.557  0.00  0.00    -0.372 OA
ENDBRANCH  13  17
ENDBRANCH   1   9
TORSDOF 2
ENDMDL
MODEL 8
REMARK VINA RESULT:      -5.2      3.429      6.278
REMARK  2 active torsions:
REMARK  status: ('A' for Active; 'I' for Inactive)
REMARK    1  A    between atoms: C_5  and  C_6 
REMARK       I    between atoms: C_6  and  N_8 
REMARK    2  A    between atoms: N_11  and  C_12 
ROOT
HETATM    1  C   UNK N   1     161.811 155.789 158.311  0.00  0.00     0.051 A 
HETATM    2  C   UNK N   1     162.729 155.305 159.253  0.00  0.00     0.031 A 
HETATM    3  C   UNK N   1     162.346 155.053 160.559  0.00  0.00     0.002 A 
HETATM    4  C   UNK N   1     161.029 155.283 160.947  0.00  0.00     0.002 A 
HETATM    5  C   UNK N   1     160.098 155.769 160.028  0.00  0.00     0.025 A 
HETATM    6  C   UNK N   1     160.473 156.029 158.711  0.00  0.00     0.071 A 
HETATM    7  C   UNK N   1     159.463 156.540 157.819  0.00  0.00     0.102 C 
HETATM    8  N   UNK N   1     158.639 156.951 157.117  0.00  0.00    -0.191 NA
ENDROOT
BRANCH   1   9
HETATM    9  N   UNK N   1     162.272 156.030 156.990  0.00  0.00    -0.377 N 
HETATM   10  C   UNK N   1     162.933 157.275 156.688  0.00  0.00     0.143 C 
HETATM   11  C   UNK N   1     164.352 156.991 156.214  0.00  0.00     0.145 C 
HETATM   12  N   UNK N   1     164.491 155.628 155.702  0.00  0.00    -0.347 N 
HETATM   13  C   UNK N   1     165.682 154.980 155.753  0.00  0.00     0.249 C 
HETATM   14  C   UNK N   1     163.370 154.980 155.068  0.00  0.00     0.145 C 
HETATM   15  O   UNK N   1     165.797 153.839 155.339  0.00  0.00    -0.270 OA
HETATM   16  C   UNK N   1     162.138 155.049 155.937  0.00  0.00     0.143 C 
BRANCH  13  17
HETATM   17  C   UNK N   1     166.873 155.682 156.198  0.00  0.00     0.214 C 
HETATM   18  C   UNK N   1     167.798 155.794 155.027  0.00  0.00     0.044 C 
HETATM   19  C   UNK N   1     169.104 156.052 155.722  0.00  0.00     0.034 C 
HETATM   20  C   UNK N   1     168.766 155.791 157.181  0.00  0.00     0.118 C 
HETATM   21  C   UNK N   1     168.420 157.127 157.857  0.00  0.00     0.039 C 
HETATM   22  O   UNK N   1     167.616 154.995 157.157  0.00  0.00    -0.372 OA
ENDBRANCH  13  17
ENDBRANCH   1   9
TORSDOF 2
ENDMDL
MODEL 9
REMARK VINA RESULT:      -5.2      2.698      3.377
REMARK  2 active torsions:
REMARK  status: ('A' for Active; 'I' for Inactive)
REMARK    1  A    between atoms: C_5  and  C_6 
REMARK       I    between atoms: C_6  and  N_8 
REMARK    2  A    between atoms: N_11  and  C_12 
ROOT
HETATM    1  C   UNK N   1     166.945 155.912 155.349  0.00  0.00     0.051 A 
HETATM    2  C   UNK N   1     168.296 155.539 155.298  0.00  0.00     0.031 A 
HETATM    3  C   UNK N   1     169.162 156.113 154.383  0.00  0.00     0.002 A 
HETATM    4  C   UNK N   1     168.687 157.078 153.499  0.00  0.00     0.002 A 
HETATM    5  C   UNK N   1     167.346 157.462 153.528  0.00  0.00     0.025 A 
HETATM    6  C   UNK N   1     166.464 156.889 154.442  0.00  0.00     0.071 A 
HETATM    7  C   UNK N   1     165.091 157.326 154.408  0.00  0.00     0.102 C 
HETATM    8  N   UNK N   1     163.993 157.688 154.366  0.00  0.00    -0.191 NA
ENDROOT
BRANCH   1   9
HETATM    9  N   UNK N   1     166.113 155.280 156.309  0.00  0.00    -0.377 N 
HETATM   10  C   UNK N   1     165.951 155.880 157.610  0.00  0.00     0.143 C 
HETATM   11  C   UNK N   1     164.485 156.226 157.828  0.00  0.00     0.145 C 
HETATM   12  N   UNK N   1     163.606 155.432 156.971  0.00  0.00    -0.347 N 
HETATM   13  C   UNK N   1     162.398 155.907 156.576  0.00  0.00     0.249 C 
HETATM   14  C   UNK N   1     163.988 154.094 156.592  0.00  0.00     0.145 C 
HETATM   15  O   UNK N   1     161.670 155.252 155.851  0.00  0.00    -0.270 OA
HETATM   16  C   UNK N   1     165.382 154.068 156.015  0.00  0.00     0.143 C 
BRANCH  13  17
HETATM   17  C   UNK N   1     161.902 157.164 157.109  0.00  0.00     0.214 C 
HETATM   18  C   UNK N   1     160.871 156.842 158.146  0.00  0.00     0.044 C 
HETATM   19  C   UNK N   1     160.129 158.145 158.220  0.00  0.00     0.034 C 
HETATM   20  C   UNK N   1     160.686 158.918 157.036  0.00  0.00     0.118 C 
HETATM   21  C   UNK N   1     161.830 159.820 157.526  0.00  0.00     0.039 C 
HETATM   22  O   UNK N   1     161.220 157.948 156.180  0.00  0.00    -0.372 OA
ENDBRANCH  13  17
ENDBRANCH   1   9
TORSDOF 2
ENDMDL
