MODEL 1
REMARK VINA RESULT:      -6.6      0.000      0.000
REMARK  5 active torsions:
REMARK  status: ('A' for Active; 'I' for Inactive)
REMARK    1  A    between atoms: C_7  and  C_8 
REMARK    2  A    between atoms: C_11  and  N_12 
REMARK    3  A    between atoms: N_12  and  C_13 
REMARK    4  A    between atoms: C_13  and  C_14 
REMARK    5  A    between atoms: N_18  and  C_19 
ROOT
HETATM    1  N   UNK N   1     167.132 156.032 153.666  0.00  0.00    -0.386 N 
HETATM    2  H   UNK N   1     167.191 156.560 152.837  0.00  0.00     0.160 HD
ENDROOT
BRANCH   1   3
HETATM    3  C   UNK N   1     165.888 155.981 154.343  0.00  0.00     0.028 A 
HETATM    4  C   UNK N   1     165.542 154.884 155.146  0.00  0.00     0.030 A 
HETATM    5  C   UNK N   1     164.304 154.849 155.790  0.00  0.00     0.018 A 
HETATM    6  C   UNK N   1     163.402 155.909 155.639  0.00  0.00     0.017 A 
HETATM    7  C   UNK N   1     163.752 157.008 154.843  0.00  0.00     0.018 A 
HETATM    8  C   UNK N   1     164.990 157.042 154.198  0.00  0.00     0.030 A 
BRANCH   6   9
HETATM    9  C   UNK N   1     162.096 155.869 156.305  0.00  0.00     0.174 A 
HETATM   10  N   UNK N   1     161.110 154.999 156.009  0.00  0.00    -0.277 N 
HETATM   11  N   UNK N   1     160.099 155.285 156.814  0.00  0.00    -0.281 N 
ATOM     12  HN  UNK N   1     161.138 154.264 155.302  1.00  0.00     0.189 HD
HETATM   13  C   UNK N   1     160.498 156.320 157.576  0.00  0.00     0.136 A 
ATOM     14  HN  UNK N   1     159.196 154.813 156.849  1.00  0.00     0.189 HD
HETATM   15  C   UNK N   1     159.664 156.964 158.624  0.00  0.00     0.099 C 
HETATM   16  O   UNK N   1     161.719 156.678 157.265  0.00  0.00    -0.278 OA
ENDBRANCH   6   9
ENDBRANCH   1   3
BRANCH   1  17
HETATM   17  C   UNK N   1     168.318 155.350 154.129  0.00  0.00     0.161 C 
BRANCH  17  18
HETATM   18  C   UNK N   1     168.522 154.057 153.408  0.00  0.00    -0.006 A 
HETATM   19  C   UNK N   1     167.922 153.680 152.224  0.00  0.00     0.117 A 
HETATM   20  N   UNK N   1     168.311 152.420 151.947  0.00  0.00    -0.305 N 
HETATM   21  N   UNK N   1     169.129 152.013 152.907  0.00  0.00    -0.268 N 
ATOM     22  HN  UNK N   1     168.024 151.872 151.136  1.00  0.00     0.186 HD
HETATM   23  C   UNK N   1     169.285 152.987 153.824  0.00  0.00     0.126 A 
BRANCH  21  24
HETATM   24  C   UNK N   1     169.707 150.700 152.966  0.00  0.00     0.056 A 
HETATM   25  C   UNK N   1     170.783 150.433 153.829  0.00  0.00     0.034 A 
HETATM   26  C   UNK N   1     171.320 149.145 153.907  0.00  0.00     0.044 A 
HETATM   27  C   UNK N   1     170.779 148.113 153.136  0.00  0.00     0.116 A 
HETATM   28  F   UNK N   1     171.289 146.861 153.226  0.00  0.00    -0.206 F 
HETATM   29  C   UNK N   1     169.709 148.371 152.275  0.00  0.00     0.044 A 
HETATM   30  C   UNK N   1     169.177 149.661 152.186  0.00  0.00     0.034 A 
ENDBRANCH  21  24
ENDBRANCH  17  18
ENDBRANCH   1  17
TORSDOF 5
ENDMDL
MODEL 2
REMARK VINA RESULT:      -6.6      4.259      8.601
REMARK  5 active torsions:
REMARK  status: ('A' for Active; 'I' for Inactive)
REMARK    1  A    between atoms: C_7  and  C_8 
REMARK    2  A    between atoms: C_11  and  N_12 
REMARK    3  A    between atoms: N_12  and  C_13 
REMARK    4  A    between atoms: C_13  and  C_14 
REMARK    5  A    between atoms: N_18  and  C_19 
ROOT
HETATM    1  N   UNK N   1     168.850 155.889 154.063  0.00  0.00    -0.386 N 
HETATM    2  H   UNK N   1     169.522 156.374 154.595  0.00  0.00     0.160 HD
ENDROOT
BRANCH   1   3
HETATM    3  C   UNK N   1     168.689 154.500 154.289  0.00  0.00     0.028 A 
HETATM    4  C   UNK N   1     168.824 153.572 153.245  0.00  0.00     0.030 A 
HETATM    5  C   UNK N   1     168.646 152.210 153.489  0.00  0.00     0.018 A 
HETATM    6  C   UNK N   1     168.332 151.762 154.778  0.00  0.00     0.017 A 
HETATM    7  C   UNK N   1     168.206 152.687 155.822  0.00  0.00     0.018 A 
HETATM    8  C   UNK N   1     168.384 154.051 155.577  0.00  0.00     0.030 A 
BRANCH   6   9
HETATM    9  C   UNK N   1     168.132 150.331 155.034  0.00  0.00     0.174 A 
HETATM   10  N   UNK N   1     167.846 149.415 154.089  0.00  0.00    -0.277 N 
HETATM   11  N   UNK N   1     167.733 148.252 154.711  0.00  0.00    -0.281 N 
ATOM     12  HN  UNK N   1     167.737 149.584 153.089  1.00  0.00     0.189 HD
HETATM   13  C   UNK N   1     167.953 148.494 156.017  0.00  0.00     0.136 A 
ATOM     14  HN  UNK N   1     167.521 147.350 154.285  1.00  0.00     0.189 HD
HETATM   15  C   UNK N   1     167.923 147.458 157.081  0.00  0.00     0.099 C 
HETATM   16  O   UNK N   1     168.196 149.765 156.216  0.00  0.00    -0.278 OA
ENDBRANCH   6   9
ENDBRANCH   1   3
BRANCH   1  17
HETATM   17  C   UNK N   1     168.079 156.632 153.092  0.00  0.00     0.161 C 
BRANCH  17  18
HETATM   18  C   UNK N   1     166.791 157.118 153.672  0.00  0.00    -0.006 A 
HETATM   19  C   UNK N   1     166.382 158.434 153.761  0.00  0.00     0.117 A 
HETATM   20  N   UNK N   1     165.202 158.456 154.410  0.00  0.00    -0.305 N 
HETATM   21  N   UNK N   1     164.867 157.210 154.715  0.00  0.00    -0.268 N 
ATOM     22  HN  UNK N   1     164.657 159.289 154.630  1.00  0.00     0.186 HD
HETATM   23  C   UNK N   1     165.816 156.358 154.281  0.00  0.00     0.126 A 
BRANCH  21  24
HETATM   24  C   UNK N   1     163.687 156.853 155.450  0.00  0.00     0.056 A 
HETATM   25  C   UNK N   1     162.888 157.845 156.041  0.00  0.00     0.034 A 
HETATM   26  C   UNK N   1     161.722 157.495 156.727  0.00  0.00     0.044 A 
HETATM   27  C   UNK N   1     161.338 156.154 156.815  0.00  0.00     0.116 A 
HETATM   28  F   UNK N   1     160.198 155.817 157.465  0.00  0.00    -0.206 F 
HETATM   29  C   UNK N   1     162.127 155.161 156.230  0.00  0.00     0.044 A 
HETATM   30  C   UNK N   1     163.302 155.508 155.554  0.00  0.00     0.034 A 
ENDBRANCH  21  24
ENDBRANCH  17  18
ENDBRANCH   1  17
TORSDOF 5
ENDMDL
MODEL 3
REMARK VINA RESULT:      -6.5      1.481      1.841
REMARK  5 active torsions:
REMARK  status: ('A' for Active; 'I' for Inactive)
REMARK    1  A    between atoms: C_7  and  C_8 
REMARK    2  A    between atoms: C_11  and  N_12 
REMARK    3  A    between atoms: N_12  and  C_13 
REMARK    4  A    between atoms: C_13  and  C_14 
REMARK    5  A    between atoms: N_18  and  C_19 
ROOT
HETATM    1  N   UNK N   1     166.091 156.222 153.384  0.00  0.00    -0.386 N 
HETATM    2  H   UNK N   1     165.922 156.368 152.426  0.00  0.00     0.160 HD
ENDROOT
BRANCH   1   3
HETATM    3  C   UNK N   1     164.984 156.210 154.268  0.00  0.00     0.028 A 
HETATM    4  C   UNK N   1     164.223 157.366 154.497  0.00  0.00     0.030 A 
HETATM    5  C   UNK N   1     163.145 157.333 155.384  0.00  0.00     0.018 A 
HETATM    6  C   UNK N   1     162.819 156.145 156.049  0.00  0.00     0.017 A 
HETATM    7  C   UNK N   1     163.574 154.988 155.814  0.00  0.00     0.018 A 
HETATM    8  C   UNK N   1     164.652 155.022 154.927  0.00  0.00     0.030 A 
BRANCH   6   9
HETATM    9  C   UNK N   1     161.695 156.111 156.991  0.00  0.00     0.174 A 
HETATM   10  N   UNK N   1     161.677 155.407 158.139  0.00  0.00    -0.277 N 
HETATM   11  N   UNK N   1     160.498 155.626 158.700  0.00  0.00    -0.281 N 
ATOM     12  HN  UNK N   1     162.426 154.819 158.506  1.00  0.00     0.189 HD
HETATM   13  C   UNK N   1     159.832 156.457 157.877  0.00  0.00     0.136 A 
ATOM     14  HN  UNK N   1     160.161 155.241 159.582  1.00  0.00     0.189 HD
HETATM   15  C   UNK N   1     158.457 156.964 158.125  0.00  0.00     0.099 C 
HETATM   16  O   UNK N   1     160.562 156.753 156.831  0.00  0.00    -0.278 OA
ENDBRANCH   6   9
ENDBRANCH   1   3
BRANCH   1  17
HETATM   17  C   UNK N   1     167.457 156.032 153.818  0.00  0.00     0.161 C 
BRANCH  17  18
HETATM   18  C   UNK N   1     167.940 154.651 153.513  0.00  0.00    -0.006 A 
HETATM   19  C   UNK N   1     167.843 154.003 152.298  0.00  0.00     0.117 A 
HETATM   20  N   UNK N   1     168.328 152.756 152.457  0.00  0.00    -0.305 N 
HETATM   21  N   UNK N   1     168.724 152.616 153.714  0.00  0.00    -0.268 N 
ATOM     22  HN  UNK N   1     168.381 152.040 151.732  1.00  0.00     0.186 HD
HETATM   23  C   UNK N   1     168.503 153.755 154.396  0.00  0.00     0.126 A 
BRANCH  21  24
HETATM   24  C   UNK N   1     169.256 151.398 154.257  0.00  0.00     0.056 A 
HETATM   25  C   UNK N   1     170.594 151.040 154.027  0.00  0.00     0.034 A 
HETATM   26  C   UNK N   1     171.118 149.871 154.586  0.00  0.00     0.044 A 
HETATM   27  C   UNK N   1     170.313 149.059 155.390  0.00  0.00     0.116 A 
HETATM   28  F   UNK N   1     170.826 147.936 155.945  0.00  0.00    -0.206 F 
HETATM   29  C   UNK N   1     168.980 149.408 155.623  0.00  0.00     0.044 A 
HETATM   30  C   UNK N   1     168.451 150.571 155.055  0.00  0.00     0.034 A 
ENDBRANCH  21  24
ENDBRANCH  17  18
ENDBRANCH   1  17
TORSDOF 5
ENDMDL
MODEL 4
REMARK VINA RESULT:      -6.3      3.614      4.221
REMARK  5 active torsions:
REMARK  status: ('A' for Active; 'I' for Inactive)
REMARK    1  A    between atoms: C_7  and  C_8 
REMARK    2  A    between atoms: C_11  and  N_12 
REMARK    3  A    between atoms: N_12  and  C_13 
REMARK    4  A    between atoms: C_13  and  C_14 
REMARK    5  A    between atoms: N_18  and  C_19 
ROOT
HETATM    1  N   UNK N   1     167.827 155.593 155.370  0.00  0.00    -0.386 N 
HETATM    2  H   UNK N   1     168.798 155.432 155.390  0.00  0.00     0.160 HD
ENDROOT
BRANCH   1   3
HETATM    3  C   UNK N   1     167.347 156.857 155.792  0.00  0.00     0.028 A 
HETATM    4  C   UNK N   1     166.506 157.626 154.972  0.00  0.00     0.030 A 
HETATM    5  C   UNK N   1     166.058 158.876 155.403  0.00  0.00     0.018 A 
HETATM    6  C   UNK N   1     166.445 159.368 156.655  0.00  0.00     0.017 A 
HETATM    7  C   UNK N   1     167.277 158.597 157.476  0.00  0.00     0.018 A 
HETATM    8  C   UNK N   1     167.726 157.347 157.045  0.00  0.00     0.030 A 
BRANCH   6   9
HETATM    9  C   UNK N   1     165.986 160.687 157.104  0.00  0.00     0.174 A 
HETATM   10  N   UNK N   1     165.652 161.704 156.284  0.00  0.00    -0.277 N 
HETATM   11  N   UNK N   1     165.301 162.716 157.061  0.00  0.00    -0.281 N 
ATOM     12  HN  UNK N   1     165.668 161.695 155.265  1.00  0.00     0.189 HD
HETATM   13  C   UNK N   1     165.431 162.288 158.330  0.00  0.00     0.136 A 
ATOM     14  HN  UNK N   1     164.992 163.639 156.758  1.00  0.00     0.189 HD
HETATM   15  C   UNK N   1     165.138 163.112 159.531  0.00  0.00     0.099 C 
HETATM   16  O   UNK N   1     165.850 161.047 158.358  0.00  0.00    -0.278 OA
ENDBRANCH   6   9
ENDBRANCH   1   3
BRANCH   1  17
HETATM   17  C   UNK N   1     166.965 154.526 154.915  0.00  0.00     0.161 C 
BRANCH  17  18
HETATM   18  C   UNK N   1     167.730 153.492 154.153  0.00  0.00    -0.006 A 
HETATM   19  C   UNK N   1     168.038 153.532 152.808  0.00  0.00     0.117 A 
HETATM   20  N   UNK N   1     168.670 152.384 152.496  0.00  0.00    -0.305 N 
HETATM   21  N   UNK N   1     168.769 151.647 153.593  0.00  0.00    -0.268 N 
ATOM     22  HN  UNK N   1     169.015 152.125 151.571  1.00  0.00     0.186 HD
HETATM   23  C   UNK N   1     168.204 152.290 154.633  0.00  0.00     0.126 A 
BRANCH  21  24
HETATM   24  C   UNK N   1     169.350 150.335 153.629  0.00  0.00     0.056 A 
HETATM   25  C   UNK N   1     170.241 149.978 154.654  0.00  0.00     0.034 A 
HETATM   26  C   UNK N   1     170.777 148.687 154.704  0.00  0.00     0.044 A 
HETATM   27  C   UNK N   1     170.416 147.742 153.740  0.00  0.00     0.116 A 
HETATM   28  F   UNK N   1     170.923 146.487 153.800  0.00  0.00    -0.206 F 
HETATM   29  C   UNK N   1     169.530 148.090 152.717  0.00  0.00     0.044 A 
HETATM   30  C   UNK N   1     169.002 149.384 152.658  0.00  0.00     0.034 A 
ENDBRANCH  21  24
ENDBRANCH  17  18
ENDBRANCH   1  17
TORSDOF 5
ENDMDL
MODEL 5
REMARK VINA RESULT:      -6.2      1.945      2.289
REMARK  5 active torsions:
REMARK  status: ('A' for Active; 'I' for Inactive)
REMARK    1  A    between atoms: C_7  and  C_8 
REMARK    2  A    between atoms: C_11  and  N_12 
REMARK    3  A    between atoms: N_12  and  C_13 
REMARK    4  A    between atoms: C_13  and  C_14 
REMARK    5  A    between atoms: N_18  and  C_19 
ROOT
HETATM    1  N   UNK N   1     167.482 154.518 154.979  0.00  0.00    -0.386 N 
HETATM    2  H   UNK N   1     167.879 155.034 154.241  0.00  0.00     0.160 HD
ENDROOT
BRANCH   1   3
HETATM    3  C   UNK N   1     166.167 154.841 155.394  0.00  0.00     0.028 A 
HETATM    4  C   UNK N   1     165.357 153.899 156.046  0.00  0.00     0.030 A 
HETATM    5  C   UNK N   1     164.059 154.236 156.431  0.00  0.00     0.018 A 
HETATM    6  C   UNK N   1     163.558 155.516 156.169  0.00  0.00     0.017 A 
HETATM    7  C   UNK N   1     164.369 156.460 155.525  0.00  0.00     0.018 A 
HETATM    8  C   UNK N   1     165.668 156.122 155.139  0.00  0.00     0.030 A 
BRANCH   6   9
HETATM    9  C   UNK N   1     162.189 155.869 156.561  0.00  0.00     0.174 A 
HETATM   10  N   UNK N   1     161.121 155.056 156.437  0.00  0.00    -0.277 N 
HETATM   11  N   UNK N   1     160.077 155.732 156.888  0.00  0.00    -0.281 N 
ATOM     12  HN  UNK N   1     161.119 154.105 156.067  1.00  0.00     0.189 HD
HETATM   13  C   UNK N   1     160.537 156.936 157.273  0.00  0.00     0.136 A 
ATOM     14  HN  UNK N   1     159.112 155.404 156.934  1.00  0.00     0.189 HD
HETATM   15  C   UNK N   1     159.693 158.016 157.846  0.00  0.00     0.099 C 
HETATM   16  O   UNK N   1     161.829 157.021 157.073  0.00  0.00    -0.278 OA
ENDBRANCH   6   9
ENDBRANCH   1   3
BRANCH   1  17
HETATM   17  C   UNK N   1     168.272 153.470 155.584  0.00  0.00     0.161 C 
BRANCH  17  18
HETATM   18  C   UNK N   1     168.438 152.307 154.661  0.00  0.00    -0.006 A 
HETATM   19  C   UNK N   1     168.154 150.988 154.953  0.00  0.00     0.117 A 
HETATM   20  N   UNK N   1     168.506 150.245 153.886  0.00  0.00    -0.305 N 
HETATM   21  N   UNK N   1     168.986 151.053 152.951  0.00  0.00    -0.268 N 
ATOM     22  HN  UNK N   1     168.419 149.232 153.809  1.00  0.00     0.186 HD
HETATM   23  C   UNK N   1     168.963 152.327 153.387  0.00  0.00     0.126 A 
BRANCH  21  24
HETATM   24  C   UNK N   1     169.501 150.604 151.688  0.00  0.00     0.056 A 
HETATM   25  C   UNK N   1     170.836 150.184 151.572  0.00  0.00     0.034 A 
HETATM   26  C   UNK N   1     171.324 149.716 150.348  0.00  0.00     0.044 A 
HETATM   27  C   UNK N   1     170.478 149.650 149.238  0.00  0.00     0.116 A 
HETATM   28  F   UNK N   1     170.946 149.179 148.057  0.00  0.00    -0.206 F 
HETATM   29  C   UNK N   1     169.148 150.066 149.346  0.00  0.00     0.044 A 
HETATM   30  C   UNK N   1     168.662 150.546 150.566  0.00  0.00     0.034 A 
ENDBRANCH  21  24
ENDBRANCH  17  18
ENDBRANCH   1  17
TORSDOF 5
ENDMDL
MODEL 6
REMARK VINA RESULT:      -6.2     12.024     13.431
REMARK  5 active torsions:
REMARK  status: ('A' for Active; 'I' for Inactive)
REMARK    1  A    between atoms: C_7  and  C_8 
REMARK    2  A    between atoms: C_11  and  N_12 
REMARK    3  A    between atoms: N_12  and  C_13 
REMARK    4  A    between atoms: C_13  and  C_14 
REMARK    5  A    between atoms: N_18  and  C_19 
ROOT
HETATM    1  N   UNK N   1     159.898 145.188 160.064  0.00  0.00    -0.386 N 
HETATM    2  H   UNK N   1     160.872 145.328 160.069  0.00  0.00     0.160 HD
ENDROOT
BRANCH   1   3
HETATM    3  C   UNK N   1     159.185 145.466 158.872  0.00  0.00     0.028 A 
HETATM    4  C   UNK N   1     159.227 144.588 157.778  0.00  0.00     0.030 A 
HETATM    5  C   UNK N   1     158.529 144.891 156.608  0.00  0.00     0.018 A 
HETATM    6  C   UNK N   1     157.782 146.072 156.521  0.00  0.00     0.017 A 
HETATM    7  C   UNK N   1     157.733 146.944 157.616  0.00  0.00     0.018 A 
HETATM    8  C   UNK N   1     158.432 146.641 158.786  0.00  0.00     0.030 A 
BRANCH   6   9
HETATM    9  C   UNK N   1     157.057 146.399 155.288  0.00  0.00     0.174 A 
HETATM   10  N   UNK N   1     157.638 146.793 154.138  0.00  0.00    -0.277 N 
HETATM   11  N   UNK N   1     156.659 146.998 153.271  0.00  0.00    -0.281 N 
ATOM     12  HN  UNK N   1     158.637 146.912 153.969  1.00  0.00     0.189 HD
HETATM   13  C   UNK N   1     155.511 146.723 153.917  0.00  0.00     0.136 A 
ATOM     14  HN  UNK N   1     156.756 147.304 152.303  1.00  0.00     0.189 HD
HETATM   15  C   UNK N   1     154.159 146.823 153.310  0.00  0.00     0.099 C 
HETATM   16  O   UNK N   1     155.753 146.357 155.151  0.00  0.00    -0.278 OA
ENDBRANCH   6   9
ENDBRANCH   1   3
BRANCH   1  17
HETATM   17  C   UNK N   1     159.269 144.710 161.274  0.00  0.00     0.161 C 
BRANCH  17  18
HETATM   18  C   UNK N   1     159.875 145.334 162.489  0.00  0.00    -0.006 A 
HETATM   19  C   UNK N   1     159.532 145.068 163.800  0.00  0.00     0.117 A 
HETATM   20  N   UNK N   1     160.255 145.886 164.589  0.00  0.00    -0.305 N 
HETATM   21  N   UNK N   1     161.031 146.636 163.819  0.00  0.00    -0.268 N 
ATOM     22  HN  UNK N   1     160.214 145.922 165.608  1.00  0.00     0.186 HD
HETATM   23  C   UNK N   1     160.827 146.330 162.523  0.00  0.00     0.126 A 
BRANCH  21  24
HETATM   24  C   UNK N   1     161.909 147.656 164.316  0.00  0.00     0.056 A 
HETATM   25  C   UNK N   1     163.228 147.754 163.843  0.00  0.00     0.034 A 
HETATM   26  C   UNK N   1     164.069 148.771 164.304  0.00  0.00     0.044 A 
HETATM   27  C   UNK N   1     163.595 149.704 165.230  0.00  0.00     0.116 A 
HETATM   28  F   UNK N   1     164.406 150.699 165.663  0.00  0.00    -0.206 F 
HETATM   29  C   UNK N   1     162.285 149.614 165.705  0.00  0.00     0.044 A 
HETATM   30  C   UNK N   1     161.445 148.590 165.254  0.00  0.00     0.034 A 
ENDBRANCH  21  24
ENDBRANCH  17  18
ENDBRANCH   1  17
TORSDOF 5
ENDMDL
MODEL 7
REMARK VINA RESULT:      -6.2      4.314     10.107
REMARK  5 active torsions:
REMARK  status: ('A' for Active; 'I' for Inactive)
REMARK    1  A    between atoms: C_7  and  C_8 
REMARK    2  A    between atoms: C_11  and  N_12 
REMARK    3  A    between atoms: N_12  and  C_13 
REMARK    4  A    between atoms: C_13  and  C_14 
REMARK    5  A    between atoms: N_18  and  C_19 
ROOT
HETATM    1  N   UNK N   1     165.635 156.484 154.671  0.00  0.00    -0.386 N 
HETATM    2  H   UNK N   1     165.981 157.233 155.208  0.00  0.00     0.160 HD
ENDROOT
BRANCH   1   3
HETATM    3  C   UNK N   1     166.498 155.391 154.408  0.00  0.00     0.028 A 
HETATM    4  C   UNK N   1     166.792 154.442 155.399  0.00  0.00     0.030 A 
HETATM    5  C   UNK N   1     167.658 153.382 155.120  0.00  0.00     0.018 A 
HETATM    6  C   UNK N   1     168.236 153.262 153.851  0.00  0.00     0.017 A 
HETATM    7  C   UNK N   1     167.936 154.206 152.860  0.00  0.00     0.018 A 
HETATM    8  C   UNK N   1     167.070 155.266 153.139  0.00  0.00     0.030 A 
BRANCH   6   9
HETATM    9  C   UNK N   1     169.156 152.157 153.560  0.00  0.00     0.174 A 
HETATM   10  N   UNK N   1     170.150 151.751 154.374  0.00  0.00    -0.277 N 
HETATM   11  N   UNK N   1     170.753 150.745 153.761  0.00  0.00    -0.281 N 
ATOM     12  HN  UNK N   1     170.390 152.143 155.284  1.00  0.00     0.189 HD
HETATM   13  C   UNK N   1     170.111 150.568 152.592  0.00  0.00     0.136 A 
ATOM     14  HN  UNK N   1     171.549 150.210 154.108  1.00  0.00     0.189 HD
HETATM   15  C   UNK N   1     170.465 149.534 151.585  0.00  0.00     0.099 C 
HETATM   16  O   UNK N   1     169.134 151.431 152.467  0.00  0.00    -0.278 OA
ENDBRANCH   6   9
ENDBRANCH   1   3
BRANCH   1  17
HETATM   17  C   UNK N   1     164.273 156.555 154.192  0.00  0.00     0.161 C 
BRANCH  17  18
HETATM   18  C   UNK N   1     163.314 155.975 155.181  0.00  0.00    -0.006 A 
HETATM   19  C   UNK N   1     162.883 154.665 155.227  0.00  0.00     0.117 A 
HETATM   20  N   UNK N   1     161.972 154.565 156.214  0.00  0.00    -0.305 N 
HETATM   21  N   UNK N   1     161.834 155.755 156.780  0.00  0.00    -0.268 N 
ATOM     22  HN  UNK N   1     161.474 153.716 156.482  1.00  0.00     0.186 HD
HETATM   23  C   UNK N   1     162.639 156.650 156.175  0.00  0.00     0.126 A 
BRANCH  21  24
HETATM   24  C   UNK N   1     160.912 156.036 157.844  0.00  0.00     0.056 A 
HETATM   25  C   UNK N   1     159.654 156.595 157.568  0.00  0.00     0.034 A 
HETATM   26  C   UNK N   1     158.746 156.835 158.604  0.00  0.00     0.044 A 
HETATM   27  C   UNK N   1     159.083 156.505 159.920  0.00  0.00     0.116 A 
HETATM   28  F   UNK N   1     158.197 156.722 160.920  0.00  0.00    -0.206 F 
HETATM   29  C   UNK N   1     160.334 155.949 160.202  0.00  0.00     0.044 A 
HETATM   30  C   UNK N   1     161.248 155.719 159.169  0.00  0.00     0.034 A 
ENDBRANCH  21  24
ENDBRANCH  17  18
ENDBRANCH   1  17
TORSDOF 5
ENDMDL
MODEL 8
REMARK VINA RESULT:      -6.1      5.870      8.714
REMARK  5 active torsions:
REMARK  status: ('A' for Active; 'I' for Inactive)
REMARK    1  A    between atoms: C_7  and  C_8 
REMARK    2  A    between atoms: C_11  and  N_12 
REMARK    3  A    between atoms: N_12  and  C_13 
REMARK    4  A    between atoms: C_13  and  C_14 
REMARK    5  A    between atoms: N_18  and  C_19 
ROOT
HETATM    1  N   UNK N   1     167.054 157.580 155.775  0.00  0.00    -0.386 N 
HETATM    2  H   UNK N   1     167.294 158.225 155.071  0.00  0.00     0.160 HD
ENDROOT
BRANCH   1   3
HETATM    3  C   UNK N   1     167.290 156.204 155.534  0.00  0.00     0.028 A 
HETATM    4  C   UNK N   1     168.415 155.774 154.813  0.00  0.00     0.030 A 
HETATM    5  C   UNK N   1     168.617 154.413 154.575  0.00  0.00     0.018 A 
HETATM    6  C   UNK N   1     167.699 153.471 155.054  0.00  0.00     0.017 A 
HETATM    7  C   UNK N   1     166.581 153.901 155.781  0.00  0.00     0.018 A 
HETATM    8  C   UNK N   1     166.378 155.262 156.018  0.00  0.00     0.030 A 
BRANCH   6   9
HETATM    9  C   UNK N   1     167.903 152.042 154.794  0.00  0.00     0.174 A 
HETATM   10  N   UNK N   1     168.526 151.541 153.710  0.00  0.00    -0.277 N 
HETATM   11  N   UNK N   1     168.502 150.224 153.835  0.00  0.00    -0.281 N 
ATOM     12  HN  UNK N   1     168.936 152.073 152.942  1.00  0.00     0.189 HD
HETATM   13  C   UNK N   1     167.865 149.961 154.991  0.00  0.00     0.136 A 
ATOM     14  HN  UNK N   1     168.890 149.542 153.183  1.00  0.00     0.189 HD
HETATM   15  C   UNK N   1     167.615 148.596 155.523  0.00  0.00     0.099 C 
HETATM   16  O   UNK N   1     167.498 151.072 155.578  0.00  0.00    -0.278 OA
ENDBRANCH   6   9
ENDBRANCH   1   3
BRANCH   1  17
HETATM   17  C   UNK N   1     166.480 158.086 157.001  0.00  0.00     0.161 C 
BRANCH  17  18
HETATM   18  C   UNK N   1     167.504 158.186 158.084  0.00  0.00    -0.006 A 
HETATM   19  C   UNK N   1     168.469 159.166 158.207  0.00  0.00     0.117 A 
HETATM   20  N   UNK N   1     169.236 158.858 159.271  0.00  0.00    -0.305 N 
HETATM   21  N   UNK N   1     168.778 157.737 159.809  0.00  0.00    -0.268 N 
ATOM     22  HN  UNK N   1     170.035 159.397 159.606  1.00  0.00     0.186 HD
HETATM   23  C   UNK N   1     167.716 157.291 159.110  0.00  0.00     0.126 A 
BRANCH  21  24
HETATM   24  C   UNK N   1     169.378 157.085 160.938  0.00  0.00     0.056 A 
HETATM   25  C   UNK N   1     170.750 157.234 161.201  0.00  0.00     0.034 A 
HETATM   26  C   UNK N   1     171.323 156.624 162.321  0.00  0.00     0.044 A 
HETATM   27  C   UNK N   1     170.529 155.875 163.193  0.00  0.00     0.116 A 
HETATM   28  F   UNK N   1     171.082 155.299 164.287  0.00  0.00    -0.206 F 
HETATM   29  C   UNK N   1     169.163 155.722 162.938  0.00  0.00     0.044 A 
HETATM   30  C   UNK N   1     168.590 156.320 161.811  0.00  0.00     0.034 A 
ENDBRANCH  21  24
ENDBRANCH  17  18
ENDBRANCH   1  17
TORSDOF 5
ENDMDL
MODEL 9
REMARK VINA RESULT:      -6.0     11.716     13.962
REMARK  5 active torsions:
REMARK  status: ('A' for Active; 'I' for Inactive)
REMARK    1  A    between atoms: C_7  and  C_8 
REMARK    2  A    between atoms: C_11  and  N_12 
REMARK    3  A    between atoms: N_12  and  C_13 
REMARK    4  A    between atoms: C_13  and  C_14 
REMARK    5  A    between atoms: N_18  and  C_19 
ROOT
HETATM    1  N   UNK N   1     159.172 146.188 163.388  0.00  0.00    -0.386 N 
HETATM    2  H   UNK N   1     158.378 146.408 163.927  0.00  0.00     0.160 HD
ENDROOT
BRANCH   1   3
HETATM    3  C   UNK N   1     160.411 146.772 163.750  0.00  0.00     0.028 A 
HETATM    4  C   UNK N   1     160.477 147.827 164.673  0.00  0.00     0.030 A 
HETATM    5  C   UNK N   1     161.708 148.396 165.001  0.00  0.00     0.018 A 
HETATM    6  C   UNK N   1     162.884 147.917 164.411  0.00  0.00     0.017 A 
HETATM    7  C   UNK N   1     162.819 146.859 163.495  0.00  0.00     0.018 A 
HETATM    8  C   UNK N   1     161.587 146.289 163.167  0.00  0.00     0.030 A 
BRANCH   6   9
HETATM    9  C   UNK N   1     164.178 148.523 164.745  0.00  0.00     0.174 A 
HETATM   10  N   UNK N   1     165.248 147.843 165.200  0.00  0.00    -0.277 N 
HETATM   11  N   UNK N   1     166.209 148.734 165.390  0.00  0.00    -0.281 N 
ATOM     12  HN  UNK N   1     165.307 146.839 165.366  1.00  0.00     0.189 HD
HETATM   13  C   UNK N   1     165.696 149.929 165.045  0.00  0.00     0.136 A 
ATOM     14  HN  UNK N   1     167.152 148.550 165.730  1.00  0.00     0.189 HD
HETATM   15  C   UNK N   1     166.440 151.214 165.106  0.00  0.00     0.099 C 
HETATM   16  O   UNK N   1     164.453 149.802 164.651  0.00  0.00    -0.278 OA
ENDBRANCH   6   9
ENDBRANCH   1   3
BRANCH   1  17
HETATM   17  C   UNK N   1     159.013 145.286 162.271  0.00  0.00     0.161 C 
BRANCH  17  18
HETATM   18  C   UNK N   1     158.728 146.027 161.005  0.00  0.00    -0.006 A 
HETATM   19  C   UNK N   1     159.667 146.541 160.132  0.00  0.00     0.117 A 
HETATM   20  N   UNK N   1     159.007 147.197 159.158  0.00  0.00    -0.305 N 
HETATM   21  N   UNK N   1     157.706 147.101 159.393  0.00  0.00    -0.268 N 
ATOM     22  HN  UNK N   1     159.436 147.685 158.372  1.00  0.00     0.186 HD
HETATM   23  C   UNK N   1     157.492 146.392 160.518  0.00  0.00     0.126 A 
BRANCH  21  24
HETATM   24  C   UNK N   1     156.696 147.719 158.581  0.00  0.00     0.056 A 
HETATM   25  C   UNK N   1     156.828 149.057 158.175  0.00  0.00     0.034 A 
HETATM   26  C   UNK N   1     155.858 149.644 157.357  0.00  0.00     0.044 A 
HETATM   27  C   UNK N   1     154.759 148.895 156.927  0.00  0.00     0.116 A 
HETATM   28  F   UNK N   1     153.830 149.460 156.119  0.00  0.00    -0.206 F 
HETATM   29  C   UNK N   1     154.621 147.563 157.326  0.00  0.00     0.044 A 
HETATM   30  C   UNK N   1     155.584 146.977 158.155  0.00  0.00     0.034 A 
ENDBRANCH  21  24
ENDBRANCH  17  18
ENDBRANCH   1  17
TORSDOF 5
ENDMDL
