MODEL 1
REMARK VINA RESULT:      -5.9      0.000      0.000
REMARK  5 active torsions:
REMARK  status: ('A' for Active; 'I' for Inactive)
REMARK    1  A    between atoms: C_5  and  N_6 
REMARK    2  A    between atoms: C_9  and  C_10 
REMARK    3  A    between atoms: C_10  and  N_11 
REMARK    4  A    between atoms: N_11  and  C_12 
REMARK    5  A    between atoms: C_12  and  C_13 
ROOT
HETATM    1  N   UNK N   1     156.296 146.836 161.092  0.00  0.00     0.088 N 
HETATM    2  H   UNK N   1     156.447 146.829 162.100  0.00  0.00     0.316 HD
ENDROOT
BRANCH   1   3
HETATM    3  C   UNK N   1     155.543 145.654 160.687  0.00  0.00     0.276 C 
BRANCH   3   4
HETATM    4  C   UNK N   1     154.042 145.857 160.863  0.00  0.00     0.033 C 
HETATM    5  C   UNK N   1     153.787 147.339 161.134  0.00  0.00     0.027 C 
HETATM    6  C   UNK N   1     153.696 147.988 159.763  0.00  0.00     0.123 C 
HETATM    7  N   UNK N   1     153.459 146.889 158.871  0.00  0.00    -0.380 N 
HETATM    8  C   UNK N   1     153.362 145.617 159.529  0.00  0.00     0.129 C 
BRANCH   7   9
HETATM    9  C   UNK N   1     153.709 146.995 157.474  0.00  0.00     0.030 A 
HETATM   10  C   UNK N   1     153.363 148.164 156.774  0.00  0.00     0.032 A 
HETATM   11  C   UNK N   1     153.562 148.243 155.393  0.00  0.00     0.044 A 
HETATM   12  C   UNK N   1     154.098 147.156 154.699  0.00  0.00     0.116 A 
HETATM   13  F   UNK N   1     154.274 147.227 153.358  0.00  0.00    -0.206 F 
HETATM   14  C   UNK N   1     154.452 145.992 155.387  0.00  0.00     0.044 A 
HETATM   15  C   UNK N   1     154.260 145.913 156.768  0.00  0.00     0.032 A 
ENDBRANCH   7   9
ENDBRANCH   3   4
ENDBRANCH   1   3
BRANCH   1  16
HETATM   16  C   UNK N   1     157.580 146.878 160.389  0.00  0.00     0.310 C 
BRANCH  16  17
HETATM   17  C   UNK N   1     157.446 147.386 158.978  0.00  0.00    -0.003 A 
HETATM   18  C   UNK N   1     156.914 148.663 158.749  0.00  0.00     0.014 A 
HETATM   19  C   UNK N   1     156.786 149.160 157.451  0.00  0.00     0.044 A 
HETATM   20  C   UNK N   1     157.195 148.390 156.361  0.00  0.00     0.128 A 
HETATM   21  F   UNK N   1     157.063 148.887 155.107  0.00  0.00    -0.205 F 
HETATM   22  C   UNK N   1     157.739 147.114 156.572  0.00  0.00     0.030 A 
HETATM   23  C   UNK N   1     158.158 146.330 155.497  0.00  0.00     0.018 A 
HETATM   24  C   UNK N   1     157.869 146.610 157.887  0.00  0.00     0.053 A 
HETATM   25  C   UNK N   1     158.698 145.064 155.730  0.00  0.00     0.018 A 
HETATM   26  C   UNK N   1     158.812 144.597 157.041  0.00  0.00     0.088 A 
HETATM   27  N   UNK N   1     158.400 145.368 158.084  0.00  0.00    -0.365 N 
ATOM     28  HN  UNK N   1     158.491 145.009 159.034  1.00  0.00     0.165 HD
ENDBRANCH  16  17
ENDBRANCH   1  16
TORSDOF 5
ENDMDL
MODEL 2
REMARK VINA RESULT:      -5.7     13.217     15.195
REMARK  5 active torsions:
REMARK  status: ('A' for Active; 'I' for Inactive)
REMARK    1  A    between atoms: C_5  and  N_6 
REMARK    2  A    between atoms: C_9  and  C_10 
REMARK    3  A    between atoms: C_10  and  N_11 
REMARK    4  A    between atoms: N_11  and  C_12 
REMARK    5  A    between atoms: C_12  and  C_13 
ROOT
HETATM    1  N   UNK N   1     168.250 157.753 159.073  0.00  0.00     0.088 N 
HETATM    2  H   UNK N   1     167.268 157.536 159.240  0.00  0.00     0.316 HD
ENDROOT
BRANCH   1   3
HETATM    3  C   UNK N   1     168.392 159.132 158.621  0.00  0.00     0.276 C 
BRANCH   3   4
HETATM    4  C   UNK N   1     167.171 159.971 158.985  0.00  0.00     0.033 C 
HETATM    5  C   UNK N   1     167.200 161.249 158.147  0.00  0.00     0.027 C 
HETATM    6  C   UNK N   1     166.535 160.882 156.831  0.00  0.00     0.123 C 
HETATM    7  N   UNK N   1     165.815 159.677 157.127  0.00  0.00    -0.380 N 
HETATM    8  C   UNK N   1     165.928 159.253 158.495  0.00  0.00     0.129 C 
BRANCH   7   9
HETATM    9  C   UNK N   1     165.390 158.789 156.099  0.00  0.00     0.030 A 
HETATM   10  C   UNK N   1     166.164 158.620 154.938  0.00  0.00     0.032 A 
HETATM   11  C   UNK N   1     165.718 157.788 153.908  0.00  0.00     0.044 A 
HETATM   12  C   UNK N   1     164.493 157.126 154.024  0.00  0.00     0.116 A 
HETATM   13  F   UNK N   1     164.053 156.334 153.018  0.00  0.00    -0.206 F 
HETATM   14  C   UNK N   1     163.720 157.281 155.177  0.00  0.00     0.044 A 
HETATM   15  C   UNK N   1     164.168 158.107 156.211  0.00  0.00     0.032 A 
ENDBRANCH   7   9
ENDBRANCH   3   4
ENDBRANCH   1   3
BRANCH   1  16
HETATM   16  C   UNK N   1     168.806 156.837 158.074  0.00  0.00     0.310 C 
BRANCH  16  17
HETATM   17  C   UNK N   1     167.746 156.000 157.410  0.00  0.00    -0.003 A 
HETATM   18  C   UNK N   1     166.573 155.682 158.111  0.00  0.00     0.014 A 
HETATM   19  C   UNK N   1     165.573 154.913 157.515  0.00  0.00     0.044 A 
HETATM   20  C   UNK N   1     165.725 154.455 156.205  0.00  0.00     0.128 A 
HETATM   21  F   UNK N   1     164.743 153.709 155.642  0.00  0.00    -0.205 F 
HETATM   22  C   UNK N   1     166.887 154.772 155.486  0.00  0.00     0.030 A 
HETATM   23  C   UNK N   1     167.057 154.328 154.173  0.00  0.00     0.018 A 
HETATM   24  C   UNK N   1     167.902 155.551 156.089  0.00  0.00     0.053 A 
HETATM   25  C   UNK N   1     168.220 154.656 153.476  0.00  0.00     0.018 A 
HETATM   26  C   UNK N   1     169.203 155.427 154.101  0.00  0.00     0.088 A 
HETATM   27  N   UNK N   1     169.028 155.855 155.381  0.00  0.00    -0.365 N 
ATOM     28  HN  UNK N   1     169.757 156.417 155.821  1.00  0.00     0.165 HD
ENDBRANCH  16  17
ENDBRANCH   1  16
TORSDOF 5
ENDMDL
MODEL 3
REMARK VINA RESULT:      -5.6      1.540      4.007
REMARK  5 active torsions:
REMARK  status: ('A' for Active; 'I' for Inactive)
REMARK    1  A    between atoms: C_5  and  N_6 
REMARK    2  A    between atoms: C_9  and  C_10 
REMARK    3  A    between atoms: C_10  and  N_11 
REMARK    4  A    between atoms: N_11  and  C_12 
REMARK    5  A    between atoms: C_12  and  C_13 
ROOT
HETATM    1  N   UNK N   1     156.043 146.584 161.398  0.00  0.00     0.088 N 
HETATM    2  H   UNK N   1     156.614 146.973 160.647  0.00  0.00     0.316 HD
ENDROOT
BRANCH   1   3
HETATM    3  C   UNK N   1     156.419 145.198 161.651  0.00  0.00     0.276 C 
BRANCH   3   4
HETATM    4  C   UNK N   1     157.934 145.021 161.667  0.00  0.00     0.033 C 
HETATM    5  C   UNK N   1     158.275 143.733 160.919  0.00  0.00     0.027 C 
HETATM    6  C   UNK N   1     158.353 144.127 159.454  0.00  0.00     0.123 C 
HETATM    7  N   UNK N   1     158.502 145.554 159.483  0.00  0.00    -0.380 N 
HETATM    8  C   UNK N   1     158.556 146.105 160.808  0.00  0.00     0.129 C 
BRANCH   7   9
HETATM    9  C   UNK N   1     158.212 146.358 158.345  0.00  0.00     0.030 A 
HETATM   10  C   UNK N   1     157.894 147.719 158.497  0.00  0.00     0.032 A 
HETATM   11  C   UNK N   1     157.557 148.493 157.383  0.00  0.00     0.044 A 
HETATM   12  C   UNK N   1     157.528 147.914 156.112  0.00  0.00     0.116 A 
HETATM   13  F   UNK N   1     157.184 148.660 155.036  0.00  0.00    -0.206 F 
HETATM   14  C   UNK N   1     157.849 146.564 155.950  0.00  0.00     0.044 A 
HETATM   15  C   UNK N   1     158.192 145.791 157.061  0.00  0.00     0.032 A 
ENDBRANCH   7   9
ENDBRANCH   3   4
ENDBRANCH   1   3
BRANCH   1  16
HETATM   16  C   UNK N   1     154.624 146.662 161.045  0.00  0.00     0.310 C 
BRANCH  16  17
HETATM   17  C   UNK N   1     154.400 147.317 159.709  0.00  0.00    -0.003 A 
HETATM   18  C   UNK N   1     154.218 148.706 159.638  0.00  0.00     0.014 A 
HETATM   19  C   UNK N   1     154.016 149.338 158.411  0.00  0.00     0.044 A 
HETATM   20  C   UNK N   1     153.999 148.592 157.232  0.00  0.00     0.128 A 
HETATM   21  F   UNK N   1     153.801 149.222 156.047  0.00  0.00    -0.205 F 
HETATM   22  C   UNK N   1     154.189 147.203 157.281  0.00  0.00     0.030 A 
HETATM   23  C   UNK N   1     154.181 146.438 156.113  0.00  0.00     0.018 A 
HETATM   24  C   UNK N   1     154.394 146.561 158.525  0.00  0.00     0.053 A 
HETATM   25  C   UNK N   1     154.373 145.059 156.187  0.00  0.00     0.018 A 
HETATM   26  C   UNK N   1     154.573 144.457 157.431  0.00  0.00     0.088 A 
HETATM   27  N   UNK N   1     154.579 145.209 158.564  0.00  0.00    -0.365 N 
ATOM     28  HN  UNK N   1     154.726 144.752 159.464  1.00  0.00     0.165 HD
ENDBRANCH  16  17
ENDBRANCH   1  16
TORSDOF 5
ENDMDL
MODEL 4
REMARK VINA RESULT:      -5.5      1.394      2.071
REMARK  5 active torsions:
REMARK  status: ('A' for Active; 'I' for Inactive)
REMARK    1  A    between atoms: C_5  and  N_6 
REMARK    2  A    between atoms: C_9  and  C_10 
REMARK    3  A    between atoms: C_10  and  N_11 
REMARK    4  A    between atoms: N_11  and  C_12 
REMARK    5  A    between atoms: C_12  and  C_13 
ROOT
HETATM    1  N   UNK N   1     157.171 144.748 159.643  0.00  0.00     0.088 N 
HETATM    2  H   UNK N   1     156.346 144.806 159.047  0.00  0.00     0.316 HD
ENDROOT
BRANCH   1   3
HETATM    3  C   UNK N   1     156.839 145.148 161.006  0.00  0.00     0.276 C 
BRANCH   3   4
HETATM    4  C   UNK N   1     155.477 144.611 161.432  0.00  0.00     0.033 C 
HETATM    5  C   UNK N   1     154.796 145.668 162.302  0.00  0.00     0.027 C 
HETATM    6  C   UNK N   1     154.103 146.605 161.327  0.00  0.00     0.123 C 
HETATM    7  N   UNK N   1     154.036 145.853 160.107  0.00  0.00    -0.380 N 
HETATM    8  C   UNK N   1     154.585 144.530 160.208  0.00  0.00     0.129 C 
BRANCH   7   9
HETATM    9  C   UNK N   1     153.833 146.488 158.849  0.00  0.00     0.030 A 
HETATM   10  C   UNK N   1     154.258 145.868 157.661  0.00  0.00     0.032 A 
HETATM   11  C   UNK N   1     154.104 146.518 156.433  0.00  0.00     0.044 A 
HETATM   12  C   UNK N   1     153.534 147.792 156.383  0.00  0.00     0.116 A 
HETATM   13  F   UNK N   1     153.402 148.428 155.195  0.00  0.00    -0.206 F 
HETATM   14  C   UNK N   1     153.102 148.413 157.556  0.00  0.00     0.044 A 
HETATM   15  C   UNK N   1     153.248 147.763 158.784  0.00  0.00     0.032 A 
ENDBRANCH   7   9
ENDBRANCH   3   4
ENDBRANCH   1   3
BRANCH   1  16
HETATM   16  C   UNK N   1     158.237 145.603 159.115  0.00  0.00     0.310 C 
BRANCH  16  17
HETATM   17  C   UNK N   1     157.701 146.841 158.447  0.00  0.00    -0.003 A 
HETATM   18  C   UNK N   1     157.165 147.875 159.230  0.00  0.00     0.014 A 
HETATM   19  C   UNK N   1     156.669 149.035 158.635  0.00  0.00     0.044 A 
HETATM   20  C   UNK N   1     156.706 149.185 157.248  0.00  0.00     0.128 A 
HETATM   21  F   UNK N   1     156.218 150.319 156.687  0.00  0.00    -0.205 F 
HETATM   22  C   UNK N   1     157.246 148.165 156.450  0.00  0.00     0.030 A 
HETATM   23  C   UNK N   1     157.296 148.296 155.061  0.00  0.00     0.018 A 
HETATM   24  C   UNK N   1     157.749 146.988 157.051  0.00  0.00     0.053 A 
HETATM   25  C   UNK N   1     157.839 147.270 154.287  0.00  0.00     0.018 A 
HETATM   26  C   UNK N   1     158.328 146.122 154.913  0.00  0.00     0.088 A 
HETATM   27  N   UNK N   1     158.275 146.002 156.267  0.00  0.00    -0.365 N 
ATOM     28  HN  UNK N   1     158.636 145.155 156.707  1.00  0.00     0.165 HD
ENDBRANCH  16  17
ENDBRANCH   1  16
TORSDOF 5
ENDMDL
MODEL 5
REMARK VINA RESULT:      -5.4     11.668     13.670
REMARK  5 active torsions:
REMARK  status: ('A' for Active; 'I' for Inactive)
REMARK    1  A    between atoms: C_5  and  N_6 
REMARK    2  A    between atoms: C_9  and  C_10 
REMARK    3  A    between atoms: C_10  and  N_11 
REMARK    4  A    between atoms: N_11  and  C_12 
REMARK    5  A    between atoms: C_12  and  C_13 
ROOT
HETATM    1  N   UNK N   1     163.030 154.573 158.485  0.00  0.00     0.088 N 
HETATM    2  H   UNK N   1     163.041 154.224 157.527  0.00  0.00     0.316 HD
ENDROOT
BRANCH   1   3
HETATM    3  C   UNK N   1     162.314 155.842 158.550  0.00  0.00     0.276 C 
BRANCH   3   4
HETATM    4  C   UNK N   1     161.318 155.985 157.404  0.00  0.00     0.033 C 
HETATM    5  C   UNK N   1     160.864 157.443 157.343  0.00  0.00     0.027 C 
HETATM    6  C   UNK N   1     161.910 158.155 156.501  0.00  0.00     0.123 C 
HETATM    7  N   UNK N   1     162.581 157.093 155.807  0.00  0.00    -0.380 N 
HETATM    8  C   UNK N   1     162.058 155.788 156.094  0.00  0.00     0.129 C 
BRANCH   7   9
HETATM    9  C   UNK N   1     163.871 157.275 155.233  0.00  0.00     0.030 A 
HETATM   10  C   UNK N   1     164.795 158.156 155.821  0.00  0.00     0.032 A 
HETATM   11  C   UNK N   1     166.041 158.372 155.225  0.00  0.00     0.044 A 
HETATM   12  C   UNK N   1     166.370 157.718 154.035  0.00  0.00     0.116 A 
HETATM   13  F   UNK N   1     167.570 157.941 153.449  0.00  0.00    -0.206 F 
HETATM   14  C   UNK N   1     165.461 156.836 153.447  0.00  0.00     0.044 A 
HETATM   15  C   UNK N   1     164.218 156.613 154.044  0.00  0.00     0.032 A 
ENDBRANCH   7   9
ENDBRANCH   3   4
ENDBRANCH   1   3
BRANCH   1  16
HETATM   16  C   UNK N   1     164.399 154.744 158.976  0.00  0.00     0.310 C 
BRANCH  16  17
HETATM   17  C   UNK N   1     165.412 154.745 157.862  0.00  0.00    -0.003 A 
HETATM   18  C   UNK N   1     165.221 153.913 156.749  0.00  0.00     0.014 A 
HETATM   19  C   UNK N   1     166.142 153.902 155.701  0.00  0.00     0.044 A 
HETATM   20  C   UNK N   1     167.266 154.727 155.745  0.00  0.00     0.128 A 
HETATM   21  F   UNK N   1     168.151 154.702 154.718  0.00  0.00    -0.205 F 
HETATM   22  C   UNK N   1     167.469 155.573 156.845  0.00  0.00     0.030 A 
HETATM   23  C   UNK N   1     168.584 156.409 156.907  0.00  0.00     0.018 A 
HETATM   24  C   UNK N   1     166.536 155.585 157.909  0.00  0.00     0.053 A 
HETATM   25  C   UNK N   1     168.765 157.243 158.011  0.00  0.00     0.018 A 
HETATM   26  C   UNK N   1     167.825 157.231 159.043  0.00  0.00     0.088 A 
HETATM   27  N   UNK N   1     166.741 156.412 158.975  0.00  0.00    -0.365 N 
ATOM     28  HN  UNK N   1     166.065 156.416 159.739  1.00  0.00     0.165 HD
ENDBRANCH  16  17
ENDBRANCH   1  16
TORSDOF 5
ENDMDL
MODEL 6
REMARK VINA RESULT:      -5.4     12.395     14.208
REMARK  5 active torsions:
REMARK  status: ('A' for Active; 'I' for Inactive)
REMARK    1  A    between atoms: C_5  and  N_6 
REMARK    2  A    between atoms: C_9  and  C_10 
REMARK    3  A    between atoms: C_10  and  N_11 
REMARK    4  A    between atoms: N_11  and  C_12 
REMARK    5  A    between atoms: C_12  and  C_13 
ROOT
HETATM    1  N   UNK N   1     167.553 156.145 159.027  0.00  0.00     0.088 N 
HETATM    2  H   UNK N   1     166.891 155.683 158.404  0.00  0.00     0.316 HD
ENDROOT
BRANCH   1   3
HETATM    3  C   UNK N   1     166.846 156.779 160.134  0.00  0.00     0.276 C 
BRANCH   3   4
HETATM    4  C   UNK N   1     165.733 155.886 160.673  0.00  0.00     0.033 C 
HETATM    5  C   UNK N   1     164.525 156.766 160.991  0.00  0.00     0.027 C 
HETATM    6  C   UNK N   1     163.764 156.895 159.682  0.00  0.00     0.123 C 
HETATM    7  N   UNK N   1     164.264 155.814 158.880  0.00  0.00    -0.380 N 
HETATM    8  C   UNK N   1     165.238 154.997 159.548  0.00  0.00     0.129 C 
BRANCH   7   9
HETATM    9  C   UNK N   1     164.123 155.808 157.464  0.00  0.00     0.030 A 
HETATM   10  C   UNK N   1     164.876 154.921 156.676  0.00  0.00     0.032 A 
HETATM   11  C   UNK N   1     164.774 154.954 155.282  0.00  0.00     0.044 A 
HETATM   12  C   UNK N   1     163.926 155.877 154.666  0.00  0.00     0.116 A 
HETATM   13  F   UNK N   1     163.840 155.921 153.315  0.00  0.00    -0.206 F 
HETATM   14  C   UNK N   1     163.168 156.758 155.440  0.00  0.00     0.044 A 
HETATM   15  C   UNK N   1     163.264 156.722 156.833  0.00  0.00     0.032 A 
ENDBRANCH   7   9
ENDBRANCH   3   4
ENDBRANCH   1   3
BRANCH   1  16
HETATM   16  C   UNK N   1     168.327 157.145 158.288  0.00  0.00     0.310 C 
BRANCH  16  17
HETATM   17  C   UNK N   1     167.663 157.547 156.999  0.00  0.00    -0.003 A 
HETATM   18  C   UNK N   1     166.733 158.596 156.994  0.00  0.00     0.014 A 
HETATM   19  C   UNK N   1     166.110 158.992 155.810  0.00  0.00     0.044 A 
HETATM   20  C   UNK N   1     166.412 158.349 154.609  0.00  0.00     0.128 A 
HETATM   21  F   UNK N   1     165.796 158.745 153.468  0.00  0.00    -0.205 F 
HETATM   22  C   UNK N   1     167.347 157.304 154.592  0.00  0.00     0.030 A 
HETATM   23  C   UNK N   1     167.666 156.650 153.401  0.00  0.00     0.018 A 
HETATM   24  C   UNK N   1     167.979 156.901 155.792  0.00  0.00     0.053 A 
HETATM   25  C   UNK N   1     168.600 155.614 153.408  0.00  0.00     0.018 A 
HETATM   26  C   UNK N   1     169.207 155.242 154.609  0.00  0.00     0.088 A 
HETATM   27  N   UNK N   1     168.889 155.884 155.766  0.00  0.00    -0.365 N 
ATOM     28  HN  UNK N   1     169.341 155.598 156.635  1.00  0.00     0.165 HD
ENDBRANCH  16  17
ENDBRANCH   1  16
TORSDOF 5
ENDMDL
MODEL 7
REMARK VINA RESULT:      -5.4     12.561     14.849
REMARK  5 active torsions:
REMARK  status: ('A' for Active; 'I' for Inactive)
REMARK    1  A    between atoms: C_5  and  N_6 
REMARK    2  A    between atoms: C_9  and  C_10 
REMARK    3  A    between atoms: C_10  and  N_11 
REMARK    4  A    between atoms: N_11  and  C_12 
REMARK    5  A    between atoms: C_12  and  C_13 
ROOT
HETATM    1  N   UNK N   1     167.261 158.265 157.833  0.00  0.00     0.088 N 
HETATM    2  H   UNK N   1     167.672 157.619 157.160  0.00  0.00     0.316 HD
ENDROOT
BRANCH   1   3
HETATM    3  C   UNK N   1     167.046 157.593 159.110  0.00  0.00     0.276 C 
BRANCH   3   4
HETATM    4  C   UNK N   1     168.193 156.646 159.445  0.00  0.00     0.033 C 
HETATM    5  C   UNK N   1     167.601 155.276 159.777  0.00  0.00     0.027 C 
HETATM    6  C   UNK N   1     167.435 154.575 158.439  0.00  0.00     0.123 C 
HETATM    7  N   UNK N   1     168.285 155.314 157.549  0.00  0.00    -0.380 N 
HETATM    8  C   UNK N   1     168.993 156.390 158.182  0.00  0.00     0.129 C 
BRANCH   7   9
HETATM    9  C   UNK N   1     168.122 155.251 156.136  0.00  0.00     0.030 A 
HETATM   10  C   UNK N   1     167.296 154.272 155.557  0.00  0.00     0.032 A 
HETATM   11  C   UNK N   1     167.180 154.180 154.167  0.00  0.00     0.044 A 
HETATM   12  C   UNK N   1     167.893 155.057 153.346  0.00  0.00     0.116 A 
HETATM   13  F   UNK N   1     167.794 154.956 152.000  0.00  0.00    -0.206 F 
HETATM   14  C   UNK N   1     168.710 156.038 153.913  0.00  0.00     0.044 A 
HETATM   15  C   UNK N   1     168.822 156.136 155.301  0.00  0.00     0.032 A 
ENDBRANCH   7   9
ENDBRANCH   3   4
ENDBRANCH   1   3
BRANCH   1  16
HETATM   16  C   UNK N   1     165.991 158.787 157.321  0.00  0.00     0.310 C 
BRANCH  16  17
HETATM   17  C   UNK N   1     165.604 158.166 156.006  0.00  0.00    -0.003 A 
HETATM   18  C   UNK N   1     166.091 158.713 154.810  0.00  0.00     0.014 A 
HETATM   19  C   UNK N   1     165.752 158.151 153.578  0.00  0.00     0.044 A 
HETATM   20  C   UNK N   1     164.927 157.027 153.523  0.00  0.00     0.128 A 
HETATM   21  F   UNK N   1     164.607 156.495 152.317  0.00  0.00    -0.205 F 
HETATM   22  C   UNK N   1     164.438 156.460 154.709  0.00  0.00     0.030 A 
HETATM   23  C   UNK N   1     163.615 155.333 154.676  0.00  0.00     0.018 A 
HETATM   24  C   UNK N   1     164.781 157.029 155.958  0.00  0.00     0.053 A 
HETATM   25  C   UNK N   1     163.142 154.785 155.868  0.00  0.00     0.018 A 
HETATM   26  C   UNK N   1     163.499 155.371 157.084  0.00  0.00     0.088 A 
HETATM   27  N   UNK N   1     164.302 156.470 157.107  0.00  0.00    -0.365 N 
ATOM     28  HN  UNK N   1     164.552 156.885 158.005  1.00  0.00     0.165 HD
ENDBRANCH  16  17
ENDBRANCH   1  16
TORSDOF 5
ENDMDL
MODEL 8
REMARK VINA RESULT:      -5.4      1.633      4.662
REMARK  5 active torsions:
REMARK  status: ('A' for Active; 'I' for Inactive)
REMARK    1  A    between atoms: C_5  and  N_6 
REMARK    2  A    between atoms: C_9  and  C_10 
REMARK    3  A    between atoms: C_10  and  N_11 
REMARK    4  A    between atoms: N_11  and  C_12 
REMARK    5  A    between atoms: C_12  and  C_13 
ROOT
HETATM    1  N   UNK N   1     156.640 146.440 161.351  0.00  0.00     0.088 N 
HETATM    2  H   UNK N   1     157.174 146.794 160.558  0.00  0.00     0.316 HD
ENDROOT
BRANCH   1   3
HETATM    3  C   UNK N   1     157.091 145.099 161.704  0.00  0.00     0.276 C 
BRANCH   3   4
HETATM    4  C   UNK N   1     158.595 144.942 161.505  0.00  0.00     0.033 C 
HETATM    5  C   UNK N   1     158.844 143.649 160.730  0.00  0.00     0.027 C 
HETATM    6  C   UNK N   1     158.706 144.025 159.264  0.00  0.00     0.123 C 
HETATM    7  N   UNK N   1     158.837 145.454 159.256  0.00  0.00    -0.380 N 
HETATM    8  C   UNK N   1     159.072 146.024 160.554  0.00  0.00     0.129 C 
BRANCH   7   9
HETATM    9  C   UNK N   1     158.375 146.241 158.163  0.00  0.00     0.030 A 
HETATM   10  C   UNK N   1     158.233 145.672 156.886  0.00  0.00     0.032 A 
HETATM   11  C   UNK N   1     157.829 146.461 155.805  0.00  0.00     0.044 A 
HETATM   12  C   UNK N   1     157.572 147.821 155.988  0.00  0.00     0.116 A 
HETATM   13  F   UNK N   1     157.199 148.588 154.937  0.00  0.00    -0.206 F 
HETATM   14  C   UNK N   1     157.704 148.394 157.255  0.00  0.00     0.044 A 
HETATM   15  C   UNK N   1     158.101 147.607 158.338  0.00  0.00     0.032 A 
ENDBRANCH   7   9
ENDBRANCH   3   4
ENDBRANCH   1   3
BRANCH   1  16
HETATM   16  C   UNK N   1     155.211 146.419 161.028  0.00  0.00     0.310 C 
BRANCH  16  17
HETATM   17  C   UNK N   1     154.954 146.069 159.587  0.00  0.00    -0.003 A 
HETATM   18  C   UNK N   1     155.017 144.729 159.176  0.00  0.00     0.014 A 
HETATM   19  C   UNK N   1     154.775 144.379 157.847  0.00  0.00     0.044 A 
HETATM   20  C   UNK N   1     154.459 145.361 156.908  0.00  0.00     0.128 A 
HETATM   21  F   UNK N   1     154.228 145.003 155.621  0.00  0.00    -0.205 F 
HETATM   22  C   UNK N   1     154.381 146.705 157.303  0.00  0.00     0.030 A 
HETATM   23  C   UNK N   1     154.062 147.703 156.380  0.00  0.00     0.018 A 
HETATM   24  C   UNK N   1     154.626 147.062 158.649  0.00  0.00     0.053 A 
HETATM   25  C   UNK N   1     153.989 149.033 156.795  0.00  0.00     0.018 A 
HETATM   26  C   UNK N   1     154.236 149.351 158.132  0.00  0.00     0.088 A 
HETATM   27  N   UNK N   1     154.547 148.372 159.025  0.00  0.00    -0.365 N 
ATOM     28  HN  UNK N   1     154.726 148.623 159.997  1.00  0.00     0.165 HD
ENDBRANCH  16  17
ENDBRANCH   1  16
TORSDOF 5
ENDMDL
MODEL 9
REMARK VINA RESULT:      -5.4      1.992      4.720
REMARK  5 active torsions:
REMARK  status: ('A' for Active; 'I' for Inactive)
REMARK    1  A    between atoms: C_5  and  N_6 
REMARK    2  A    between atoms: C_9  and  C_10 
REMARK    3  A    between atoms: C_10  and  N_11 
REMARK    4  A    between atoms: N_11  and  C_12 
REMARK    5  A    between atoms: C_12  and  C_13 
ROOT
HETATM    1  N   UNK N   1     155.642 143.903 160.273  0.00  0.00     0.088 N 
HETATM    2  H   UNK N   1     156.065 144.696 160.754  0.00  0.00     0.316 HD
ENDROOT
BRANCH   1   3
HETATM    3  C   UNK N   1     156.666 142.930 159.909  0.00  0.00     0.276 C 
BRANCH   3   4
HETATM    4  C   UNK N   1     158.030 143.312 160.475  0.00  0.00     0.033 C 
HETATM    5  C   UNK N   1     159.107 142.767 159.538  0.00  0.00     0.027 C 
HETATM    6  C   UNK N   1     159.277 143.826 158.461  0.00  0.00     0.123 C 
HETATM    7  N   UNK N   1     158.691 145.004 159.034  0.00  0.00    -0.380 N 
HETATM    8  C   UNK N   1     158.194 144.816 160.368  0.00  0.00     0.129 C 
BRANCH   7   9
HETATM    9  C   UNK N   1     158.278 146.101 158.226  0.00  0.00     0.030 A 
HETATM   10  C   UNK N   1     157.931 147.329 158.816  0.00  0.00     0.032 A 
HETATM   11  C   UNK N   1     157.476 148.387 158.024  0.00  0.00     0.044 A 
HETATM   12  C   UNK N   1     157.357 148.226 156.642  0.00  0.00     0.116 A 
HETATM   13  F   UNK N   1     156.899 149.245 155.877  0.00  0.00    -0.206 F 
HETATM   14  C   UNK N   1     157.706 147.012 156.046  0.00  0.00     0.044 A 
HETATM   15  C   UNK N   1     158.167 145.955 156.834  0.00  0.00     0.032 A 
ENDBRANCH   7   9
ENDBRANCH   3   4
ENDBRANCH   1   3
BRANCH   1  16
HETATM   16  C   UNK N   1     154.935 144.359 159.074  0.00  0.00     0.310 C 
BRANCH  16  17
HETATM   17  C   UNK N   1     154.545 145.811 159.156  0.00  0.00    -0.003 A 
HETATM   18  C   UNK N   1     154.475 146.442 160.406  0.00  0.00     0.014 A 
HETATM   19  C   UNK N   1     154.124 147.789 160.507  0.00  0.00     0.044 A 
HETATM   20  C   UNK N   1     153.843 148.529 159.358  0.00  0.00     0.128 A 
HETATM   21  F   UNK N   1     153.502 149.836 159.474  0.00  0.00    -0.205 F 
HETATM   22  C   UNK N   1     153.918 147.917 158.097  0.00  0.00     0.030 A 
HETATM   23  C   UNK N   1     153.645 148.640 156.935  0.00  0.00     0.018 A 
HETATM   24  C   UNK N   1     154.274 146.552 157.994  0.00  0.00     0.053 A 
HETATM   25  C   UNK N   1     153.727 148.012 155.692  0.00  0.00     0.018 A 
HETATM   26  C   UNK N   1     154.081 146.663 155.626  0.00  0.00     0.088 A 
HETATM   27  N   UNK N   1     154.345 145.965 156.764  0.00  0.00    -0.365 N 
ATOM     28  HN  UNK N   1     154.601 144.980 156.695  1.00  0.00     0.165 HD
ENDBRANCH  16  17
ENDBRANCH   1  16
TORSDOF 5
ENDMDL
