MODEL 1
REMARK VINA RESULT:      -5.4      0.000      0.000
REMARK  5 active torsions:
REMARK  status: ('A' for Active; 'I' for Inactive)
REMARK    1  A    between atoms: C_5  and  N_6 
REMARK    2  A    between atoms: C_9  and  C_10 
REMARK    3  A    between atoms: C_10  and  N_11 
REMARK    4  A    between atoms: N_11  and  C_12 
REMARK    5  A    between atoms: C_12  and  C_13 
ROOT
HETATM    1  N   UNK N   1     162.973 154.793 156.951  0.00  0.00     0.088 N 
HETATM    2  H   UNK N   1     162.679 154.017 157.544  0.00  0.00     0.316 HD
ENDROOT
BRANCH   1   3
HETATM    3  C   UNK N   1     161.834 155.641 156.626  0.00  0.00     0.276 C 
BRANCH   3   4
HETATM    4  C   UNK N   1     161.764 156.819 157.592  0.00  0.00     0.033 C 
HETATM    5  C   UNK N   1     161.450 158.087 156.802  0.00  0.00     0.027 C 
HETATM    6  C   UNK N   1     162.799 158.655 156.403  0.00  0.00     0.123 C 
HETATM    7  N   UNK N   1     163.696 158.125 157.389  0.00  0.00    -0.380 N 
HETATM    8  C   UNK N   1     163.138 157.079 158.199  0.00  0.00     0.129 C 
BRANCH   7   9
HETATM    9  C   UNK N   1     164.960 158.725 157.661  0.00  0.00     0.030 A 
HETATM   10  C   UNK N   1     165.743 158.269 158.733  0.00  0.00     0.032 A 
HETATM   11  C   UNK N   1     167.005 158.818 158.974  0.00  0.00     0.044 A 
HETATM   12  C   UNK N   1     167.501 159.820 158.137  0.00  0.00     0.116 A 
HETATM   13  F   UNK N   1     168.734 160.336 158.360  0.00  0.00    -0.206 F 
HETATM   14  C   UNK N   1     166.729 160.286 157.069  0.00  0.00     0.044 A 
HETATM   15  C   UNK N   1     165.462 159.745 156.833  0.00  0.00     0.032 A 
ENDBRANCH   7   9
ENDBRANCH   3   4
ENDBRANCH   1   3
BRANCH   1  16
HETATM   16  C   UNK N   1     163.562 154.293 155.716  0.00  0.00     0.310 C 
BRANCH  16  17
HETATM   17  C   UNK N   1     164.413 155.364 155.109  0.00  0.00    -0.003 A 
HETATM   18  C   UNK N   1     163.917 156.099 154.025  0.00  0.00     0.014 A 
HETATM   19  C   UNK N   1     164.675 157.126 153.458  0.00  0.00     0.044 A 
HETATM   20  C   UNK N   1     165.939 157.432 153.966  0.00  0.00     0.128 A 
HETATM   21  F   UNK N   1     166.656 158.441 153.410  0.00  0.00    -0.205 F 
HETATM   22  C   UNK N   1     166.453 156.701 155.045  0.00  0.00     0.030 A 
HETATM   23  C   UNK N   1     167.717 156.990 155.570  0.00  0.00     0.018 A 
HETATM   24  C   UNK N   1     165.692 155.657 155.624  0.00  0.00     0.053 A 
HETATM   25  C   UNK N   1     168.207 156.251 156.645  0.00  0.00     0.018 A 
HETATM   26  C   UNK N   1     167.429 155.227 157.188  0.00  0.00     0.088 A 
HETATM   27  N   UNK N   1     166.197 154.954 156.673  0.00  0.00    -0.365 N 
ATOM     28  HN  UNK N   1     165.641 154.205 157.085  1.00  0.00     0.165 HD
ENDBRANCH  16  17
ENDBRANCH   1  16
TORSDOF 5
ENDMDL
MODEL 2
REMARK VINA RESULT:      -5.4      2.106      4.035
REMARK  5 active torsions:
REMARK  status: ('A' for Active; 'I' for Inactive)
REMARK    1  A    between atoms: C_5  and  N_6 
REMARK    2  A    between atoms: C_9  and  C_10 
REMARK    3  A    between atoms: C_10  and  N_11 
REMARK    4  A    between atoms: N_11  and  C_12 
REMARK    5  A    between atoms: C_12  and  C_13 
ROOT
HETATM    1  N   UNK N   1     169.199 155.025 156.719  0.00  0.00     0.088 N 
HETATM    2  H   UNK N   1     170.195 154.822 156.640  0.00  0.00     0.316 HD
ENDROOT
BRANCH   1   3
HETATM    3  C   UNK N   1     168.664 154.463 157.953  0.00  0.00     0.276 C 
BRANCH   3   4
HETATM    4  C   UNK N   1     168.570 155.544 159.024  0.00  0.00     0.033 C 
HETATM    5  C   UNK N   1     167.168 155.518 159.627  0.00  0.00     0.027 C 
HETATM    6  C   UNK N   1     166.349 156.469 158.774  0.00  0.00     0.123 C 
HETATM    7  N   UNK N   1     167.328 157.355 158.215  0.00  0.00    -0.380 N 
HETATM    8  C   UNK N   1     168.687 156.923 158.388  0.00  0.00     0.129 C 
BRANCH   7   9
HETATM    9  C   UNK N   1     166.982 158.642 157.710  0.00  0.00     0.030 A 
HETATM   10  C   UNK N   1     165.804 158.817 156.965  0.00  0.00     0.032 A 
HETATM   11  C   UNK N   1     165.433 160.084 156.511  0.00  0.00     0.044 A 
HETATM   12  C   UNK N   1     166.230 161.193 156.808  0.00  0.00     0.116 A 
HETATM   13  F   UNK N   1     165.857 162.424 156.385  0.00  0.00    -0.206 F 
HETATM   14  C   UNK N   1     167.407 161.031 157.544  0.00  0.00     0.044 A 
HETATM   15  C   UNK N   1     167.785 159.761 157.990  0.00  0.00     0.032 A 
ENDBRANCH   7   9
ENDBRANCH   3   4
ENDBRANCH   1   3
BRANCH   1  16
HETATM   16  C   UNK N   1     168.475 154.463 155.586  0.00  0.00     0.310 C 
BRANCH  16  17
HETATM   17  C   UNK N   1     167.624 155.529 154.969  0.00  0.00    -0.003 A 
HETATM   18  C   UNK N   1     168.241 156.602 154.316  0.00  0.00     0.014 A 
HETATM   19  C   UNK N   1     167.474 157.596 153.703  0.00  0.00     0.044 A 
HETATM   20  C   UNK N   1     166.080 157.530 153.735  0.00  0.00     0.128 A 
HETATM   21  F   UNK N   1     165.351 158.497 153.124  0.00  0.00    -0.205 F 
HETATM   22  C   UNK N   1     165.447 156.467 154.392  0.00  0.00     0.030 A 
HETATM   23  C   UNK N   1     164.052 156.381 154.437  0.00  0.00     0.018 A 
HETATM   24  C   UNK N   1     166.218 155.458 155.018  0.00  0.00     0.053 A 
HETATM   25  C   UNK N   1     163.444 155.313 155.095  0.00  0.00     0.018 A 
HETATM   26  C   UNK N   1     164.236 154.337 155.702  0.00  0.00     0.088 A 
HETATM   27  N   UNK N   1     165.595 154.427 155.651  0.00  0.00    -0.365 N 
ATOM     28  HN  UNK N   1     166.158 153.703 156.098  1.00  0.00     0.165 HD
ENDBRANCH  16  17
ENDBRANCH   1  16
TORSDOF 5
ENDMDL
MODEL 3
REMARK VINA RESULT:      -5.4      1.187      2.187
REMARK  5 active torsions:
REMARK  status: ('A' for Active; 'I' for Inactive)
REMARK    1  A    between atoms: C_5  and  N_6 
REMARK    2  A    between atoms: C_9  and  C_10 
REMARK    3  A    between atoms: C_10  and  N_11 
REMARK    4  A    between atoms: N_11  and  C_12 
REMARK    5  A    between atoms: C_12  and  C_13 
ROOT
HETATM    1  N   UNK N   1     162.877 154.612 156.946  0.00  0.00     0.088 N 
HETATM    2  H   UNK N   1     162.423 153.766 157.288  0.00  0.00     0.316 HD
ENDROOT
BRANCH   1   3
HETATM    3  C   UNK N   1     161.880 155.615 156.594  0.00  0.00     0.276 C 
BRANCH   3   4
HETATM    4  C   UNK N   1     161.831 156.703 157.662  0.00  0.00     0.033 C 
HETATM    5  C   UNK N   1     161.419 158.019 157.006  0.00  0.00     0.027 C 
HETATM    6  C   UNK N   1     162.717 158.675 156.576  0.00  0.00     0.123 C 
HETATM    7  N   UNK N   1     163.696 158.102 157.454  0.00  0.00    -0.380 N 
HETATM    8  C   UNK N   1     163.230 156.968 158.204  0.00  0.00     0.129 C 
BRANCH   7   9
HETATM    9  C   UNK N   1     164.952 158.729 157.699  0.00  0.00     0.030 A 
HETATM   10  C   UNK N   1     165.835 158.195 158.652  0.00  0.00     0.032 A 
HETATM   11  C   UNK N   1     167.089 158.775 158.860  0.00  0.00     0.044 A 
HETATM   12  C   UNK N   1     167.477 159.888 158.110  0.00  0.00     0.116 A 
HETATM   13  F   UNK N   1     168.701 160.436 158.298  0.00  0.00    -0.206 F 
HETATM   14  C   UNK N   1     166.604 160.432 157.162  0.00  0.00     0.044 A 
HETATM   15  C   UNK N   1     165.345 159.858 156.960  0.00  0.00     0.032 A 
ENDBRANCH   7   9
ENDBRANCH   3   4
ENDBRANCH   1   3
BRANCH   1  16
HETATM   16  C   UNK N   1     163.688 154.315 155.772  0.00  0.00     0.310 C 
BRANCH  16  17
HETATM   17  C   UNK N   1     165.028 154.965 155.924  0.00  0.00    -0.003 A 
HETATM   18  C   UNK N   1     165.944 154.435 156.841  0.00  0.00     0.014 A 
HETATM   19  C   UNK N   1     167.214 155.000 156.982  0.00  0.00     0.044 A 
HETATM   20  C   UNK N   1     167.585 156.102 156.208  0.00  0.00     0.128 A 
HETATM   21  F   UNK N   1     168.827 156.629 156.350  0.00  0.00    -0.205 F 
HETATM   22  C   UNK N   1     166.677 156.649 155.292  0.00  0.00     0.030 A 
HETATM   23  C   UNK N   1     167.028 157.752 154.508  0.00  0.00     0.018 A 
HETATM   24  C   UNK N   1     165.387 156.083 155.146  0.00  0.00     0.053 A 
HETATM   25  C   UNK N   1     166.108 158.278 153.601  0.00  0.00     0.018 A 
HETATM   26  C   UNK N   1     164.845 157.695 153.485  0.00  0.00     0.088 A 
HETATM   27  N   UNK N   1     164.513 156.618 154.251  0.00  0.00    -0.365 N 
ATOM     28  HN  UNK N   1     163.587 156.204 154.150  1.00  0.00     0.165 HD
ENDBRANCH  16  17
ENDBRANCH   1  16
TORSDOF 5
ENDMDL
MODEL 4
REMARK VINA RESULT:      -5.3     12.304     14.750
REMARK  5 active torsions:
REMARK  status: ('A' for Active; 'I' for Inactive)
REMARK    1  A    between atoms: C_5  and  N_6 
REMARK    2  A    between atoms: C_9  and  C_10 
REMARK    3  A    between atoms: C_10  and  N_11 
REMARK    4  A    between atoms: N_11  and  C_12 
REMARK    5  A    between atoms: C_12  and  C_13 
ROOT
HETATM    1  N   UNK N   1     155.861 147.578 160.225  0.00  0.00     0.088 N 
HETATM    2  H   UNK N   1     155.781 148.289 160.951  0.00  0.00     0.316 HD
ENDROOT
BRANCH   1   3
HETATM    3  C   UNK N   1     155.468 146.275 160.745  0.00  0.00     0.276 C 
BRANCH   3   4
HETATM    4  C   UNK N   1     154.139 145.845 160.133  0.00  0.00     0.033 C 
HETATM    5  C   UNK N   1     154.269 144.410 159.630  0.00  0.00     0.027 C 
HETATM    6  C   UNK N   1     154.746 144.531 158.196  0.00  0.00     0.123 C 
HETATM    7  N   UNK N   1     154.307 145.837 157.799  0.00  0.00    -0.380 N 
HETATM    8  C   UNK N   1     153.851 146.664 158.881  0.00  0.00     0.129 C 
BRANCH   7   9
HETATM    9  C   UNK N   1     154.156 146.200 156.429  0.00  0.00     0.030 A 
HETATM   10  C   UNK N   1     153.572 147.430 156.084  0.00  0.00     0.032 A 
HETATM   11  C   UNK N   1     153.468 147.814 154.745  0.00  0.00     0.044 A 
HETATM   12  C   UNK N   1     153.957 146.979 153.738  0.00  0.00     0.116 A 
HETATM   13  F   UNK N   1     153.874 147.363 152.442  0.00  0.00    -0.206 F 
HETATM   14  C   UNK N   1     154.536 145.750 154.069  0.00  0.00     0.044 A 
HETATM   15  C   UNK N   1     154.631 145.359 155.408  0.00  0.00     0.032 A 
ENDBRANCH   7   9
ENDBRANCH   3   4
ENDBRANCH   1   3
BRANCH   1  16
HETATM   16  C   UNK N   1     157.233 147.503 159.738  0.00  0.00     0.310 C 
BRANCH  16  17
HETATM   17  C   UNK N   1     157.242 147.721 158.257  0.00  0.00    -0.003 A 
HETATM   18  C   UNK N   1     156.747 148.925 157.742  0.00  0.00     0.014 A 
HETATM   19  C   UNK N   1     156.771 149.171 156.367  0.00  0.00     0.044 A 
HETATM   20  C   UNK N   1     157.290 148.217 155.489  0.00  0.00     0.128 A 
HETATM   21  F   UNK N   1     157.317 148.479 154.158  0.00  0.00    -0.205 F 
HETATM   22  C   UNK N   1     157.782 147.004 155.989  0.00  0.00     0.030 A 
HETATM   23  C   UNK N   1     158.306 146.035 155.128  0.00  0.00     0.018 A 
HETATM   24  C   UNK N   1     157.759 146.747 157.381  0.00  0.00     0.053 A 
HETATM   25  C   UNK N   1     158.792 144.836 155.648  0.00  0.00     0.018 A 
HETATM   26  C   UNK N   1     158.751 144.616 157.026  0.00  0.00     0.088 A 
HETATM   27  N   UNK N   1     158.241 145.567 157.858  0.00  0.00    -0.365 N 
ATOM     28  HN  UNK N   1     158.222 145.390 158.862  1.00  0.00     0.165 HD
ENDBRANCH  16  17
ENDBRANCH   1  16
TORSDOF 5
ENDMDL
MODEL 5
REMARK VINA RESULT:      -5.3      2.638      5.770
REMARK  5 active torsions:
REMARK  status: ('A' for Active; 'I' for Inactive)
REMARK    1  A    between atoms: C_5  and  N_6 
REMARK    2  A    between atoms: C_9  and  C_10 
REMARK    3  A    between atoms: C_10  and  N_11 
REMARK    4  A    between atoms: N_11  and  C_12 
REMARK    5  A    between atoms: C_12  and  C_13 
ROOT
HETATM    1  N   UNK N   1     169.403 154.797 155.282  0.00  0.00     0.088 N 
HETATM    2  H   UNK N   1     170.270 154.400 155.641  0.00  0.00     0.316 HD
ENDROOT
BRANCH   1   3
HETATM    3  C   UNK N   1     169.384 154.742 153.826  0.00  0.00     0.276 C 
BRANCH   3   4
HETATM    4  C   UNK N   1     168.154 153.978 153.346  0.00  0.00     0.033 C 
HETATM    5  C   UNK N   1     167.395 154.847 152.347  0.00  0.00     0.027 C 
HETATM    6  C   UNK N   1     166.415 155.651 153.180  0.00  0.00     0.123 C 
HETATM    7  N   UNK N   1     166.234 154.854 154.358  0.00  0.00    -0.380 N 
HETATM    8  C   UNK N   1     167.178 153.781 154.499  0.00  0.00     0.129 C 
BRANCH   7   9
HETATM    9  C   UNK N   1     165.095 155.000 155.203  0.00  0.00     0.030 A 
HETATM   10  C   UNK N   1     164.972 154.222 156.365  0.00  0.00     0.032 A 
HETATM   11  C   UNK N   1     163.884 154.397 157.224  0.00  0.00     0.044 A 
HETATM   12  C   UNK N   1     162.915 155.360 156.936  0.00  0.00     0.116 A 
HETATM   13  F   UNK N   1     161.873 155.543 157.781  0.00  0.00    -0.206 F 
HETATM   14  C   UNK N   1     163.024 156.138 155.779  0.00  0.00     0.044 A 
HETATM   15  C   UNK N   1     164.107 155.957 154.913  0.00  0.00     0.032 A 
ENDBRANCH   7   9
ENDBRANCH   3   4
ENDBRANCH   1   3
BRANCH   1  16
HETATM   16  C   UNK N   1     169.266 156.184 155.708  0.00  0.00     0.310 C 
BRANCH  16  17
HETATM   17  C   UNK N   1     168.288 156.257 156.838  0.00  0.00    -0.003 A 
HETATM   18  C   UNK N   1     168.427 155.379 157.920  0.00  0.00     0.014 A 
HETATM   19  C   UNK N   1     167.548 155.444 159.004  0.00  0.00     0.044 A 
HETATM   20  C   UNK N   1     166.520 156.388 159.022  0.00  0.00     0.128 A 
HETATM   21  F   UNK N   1     165.684 156.445 160.090  0.00  0.00    -0.205 F 
HETATM   22  C   UNK N   1     166.362 157.269 157.944  0.00  0.00     0.030 A 
HETATM   23  C   UNK N   1     165.339 158.222 157.941  0.00  0.00     0.018 A 
HETATM   24  C   UNK N   1     167.247 157.207 156.840  0.00  0.00     0.053 A 
HETATM   25  C   UNK N   1     165.202 159.089 156.858  0.00  0.00     0.018 A 
HETATM   26  C   UNK N   1     166.092 158.998 155.786  0.00  0.00     0.088 A 
HETATM   27  N   UNK N   1     167.089 158.068 155.799  0.00  0.00    -0.365 N 
ATOM     28  HN  UNK N   1     167.731 158.018 155.009  1.00  0.00     0.165 HD
ENDBRANCH  16  17
ENDBRANCH   1  16
TORSDOF 5
ENDMDL
MODEL 6
REMARK VINA RESULT:      -5.2      2.419      4.919
REMARK  5 active torsions:
REMARK  status: ('A' for Active; 'I' for Inactive)
REMARK    1  A    between atoms: C_5  and  N_6 
REMARK    2  A    between atoms: C_9  and  C_10 
REMARK    3  A    between atoms: C_10  and  N_11 
REMARK    4  A    between atoms: N_11  and  C_12 
REMARK    5  A    between atoms: C_12  and  C_13 
ROOT
HETATM    1  N   UNK N   1     167.441 158.333 158.750  0.00  0.00     0.088 N 
HETATM    2  H   UNK N   1     167.687 159.318 158.844  0.00  0.00     0.316 HD
ENDROOT
BRANCH   1   3
HETATM    3  C   UNK N   1     167.551 157.659 160.037  0.00  0.00     0.276 C 
BRANCH   3   4
HETATM    4  C   UNK N   1     166.179 157.171 160.492  0.00  0.00     0.033 C 
HETATM    5  C   UNK N   1     166.294 155.710 160.920  0.00  0.00     0.027 C 
HETATM    6  C   UNK N   1     166.025 154.903 159.664  0.00  0.00     0.123 C 
HETATM    7  N   UNK N   1     165.245 155.789 158.849  0.00  0.00    -0.380 N 
HETATM    8  C   UNK N   1     165.215 157.148 159.313  0.00  0.00     0.129 C 
BRANCH   7   9
HETATM    9  C   UNK N   1     164.420 155.313 157.789  0.00  0.00     0.030 A 
HETATM   10  C   UNK N   1     163.627 156.208 157.054  0.00  0.00     0.032 A 
HETATM   11  C   UNK N   1     162.855 155.756 155.981  0.00  0.00     0.044 A 
HETATM   12  C   UNK N   1     162.878 154.405 155.626  0.00  0.00     0.116 A 
HETATM   13  F   UNK N   1     162.145 153.972 154.572  0.00  0.00    -0.206 F 
HETATM   14  C   UNK N   1     163.659 153.503 156.354  0.00  0.00     0.044 A 
HETATM   15  C   UNK N   1     164.424 153.953 157.435  0.00  0.00     0.032 A 
ENDBRANCH   7   9
ENDBRANCH   3   4
ENDBRANCH   1   3
BRANCH   1  16
HETATM   16  C   UNK N   1     168.324 157.679 157.793  0.00  0.00     0.310 C 
BRANCH  16  17
HETATM   17  C   UNK N   1     167.531 157.280 156.587  0.00  0.00    -0.003 A 
HETATM   18  C   UNK N   1     166.802 158.255 155.896  0.00  0.00     0.014 A 
HETATM   19  C   UNK N   1     166.078 157.920 154.749  0.00  0.00     0.044 A 
HETATM   20  C   UNK N   1     166.075 156.606 154.277  0.00  0.00     0.128 A 
HETATM   21  F   UNK N   1     165.377 156.302 153.154  0.00  0.00    -0.205 F 
HETATM   22  C   UNK N   1     166.793 155.617 154.961  0.00  0.00     0.030 A 
HETATM   23  C   UNK N   1     166.803 154.294 154.507  0.00  0.00     0.018 A 
HETATM   24  C   UNK N   1     167.527 155.949 156.126  0.00  0.00     0.053 A 
HETATM   25  C   UNK N   1     167.527 153.327 155.203  0.00  0.00     0.018 A 
HETATM   26  C   UNK N   1     168.237 153.691 156.349  0.00  0.00     0.088 A 
HETATM   27  N   UNK N   1     168.224 154.982 156.783  0.00  0.00    -0.365 N 
ATOM     28  HN  UNK N   1     168.751 155.230 157.620  1.00  0.00     0.165 HD
ENDBRANCH  16  17
ENDBRANCH   1  16
TORSDOF 5
ENDMDL
MODEL 7
REMARK VINA RESULT:      -5.2     12.544     15.010
REMARK  5 active torsions:
REMARK  status: ('A' for Active; 'I' for Inactive)
REMARK    1  A    between atoms: C_5  and  N_6 
REMARK    2  A    between atoms: C_9  and  C_10 
REMARK    3  A    between atoms: C_10  and  N_11 
REMARK    4  A    between atoms: N_11  and  C_12 
REMARK    5  A    between atoms: C_12  and  C_13 
ROOT
HETATM    1  N   UNK N   1     154.023 149.304 157.987  0.00  0.00     0.088 N 
HETATM    2  H   UNK N   1     153.472 150.161 158.025  0.00  0.00     0.316 HD
ENDROOT
BRANCH   1   3
HETATM    3  C   UNK N   1     154.692 149.189 156.697  0.00  0.00     0.276 C 
BRANCH   3   4
HETATM    4  C   UNK N   1     156.178 149.496 156.847  0.00  0.00     0.033 C 
HETATM    5  C   UNK N   1     156.951 148.719 155.785  0.00  0.00     0.027 C 
HETATM    6  C   UNK N   1     157.290 147.388 156.430  0.00  0.00     0.123 C 
HETATM    7  N   UNK N   1     157.267 147.674 157.835  0.00  0.00    -0.380 N 
HETATM    8  C   UNK N   1     156.694 148.948 158.172  0.00  0.00     0.129 C 
BRANCH   7   9
HETATM    9  C   UNK N   1     157.935 146.849 158.786  0.00  0.00     0.030 A 
HETATM   10  C   UNK N   1     157.852 147.140 160.157  0.00  0.00     0.032 A 
HETATM   11  C   UNK N   1     158.461 146.307 161.098  0.00  0.00     0.044 A 
HETATM   12  C   UNK N   1     159.150 145.167 160.677  0.00  0.00     0.116 A 
HETATM   13  F   UNK N   1     159.723 144.348 161.592  0.00  0.00    -0.206 F 
HETATM   14  C   UNK N   1     159.245 144.869 159.315  0.00  0.00     0.044 A 
HETATM   15  C   UNK N   1     158.644 145.709 158.371  0.00  0.00     0.032 A 
ENDBRANCH   7   9
ENDBRANCH   3   4
ENDBRANCH   1   3
BRANCH   1  16
HETATM   16  C   UNK N   1     153.168 148.141 158.186  0.00  0.00     0.310 C 
BRANCH  16  17
HETATM   17  C   UNK N   1     153.717 147.314 159.306  0.00  0.00    -0.003 A 
HETATM   18  C   UNK N   1     153.594 147.777 160.621  0.00  0.00     0.014 A 
HETATM   19  C   UNK N   1     154.068 147.012 161.690  0.00  0.00     0.044 A 
HETATM   20  C   UNK N   1     154.672 145.774 161.458  0.00  0.00     0.128 A 
HETATM   21  F   UNK N   1     155.115 145.041 162.510  0.00  0.00    -0.205 F 
HETATM   22  C   UNK N   1     154.810 145.300 160.147  0.00  0.00     0.030 A 
HETATM   23  C   UNK N   1     155.411 144.064 159.892  0.00  0.00     0.018 A 
HETATM   24  C   UNK N   1     154.334 146.071 159.059  0.00  0.00     0.053 A 
HETATM   25  C   UNK N   1     155.536 143.612 158.579  0.00  0.00     0.018 A 
HETATM   26  C   UNK N   1     155.057 144.400 157.531  0.00  0.00     0.088 A 
HETATM   27  N   UNK N   1     154.469 145.602 157.789  0.00  0.00    -0.365 N 
ATOM     28  HN  UNK N   1     154.122 146.162 157.011  1.00  0.00     0.165 HD
ENDBRANCH  16  17
ENDBRANCH   1  16
TORSDOF 5
ENDMDL
MODEL 8
REMARK VINA RESULT:      -5.2     12.373     14.686
REMARK  5 active torsions:
REMARK  status: ('A' for Active; 'I' for Inactive)
REMARK    1  A    between atoms: C_5  and  N_6 
REMARK    2  A    between atoms: C_9  and  C_10 
REMARK    3  A    between atoms: C_10  and  N_11 
REMARK    4  A    between atoms: N_11  and  C_12 
REMARK    5  A    between atoms: C_12  and  C_13 
ROOT
HETATM    1  N   UNK N   1     155.315 149.404 158.095  0.00  0.00     0.088 N 
HETATM    2  H   UNK N   1     155.168 150.410 158.165  0.00  0.00     0.316 HD
ENDROOT
BRANCH   1   3
HETATM    3  C   UNK N   1     154.550 148.708 159.123  0.00  0.00     0.276 C 
BRANCH   3   4
HETATM    4  C   UNK N   1     153.337 148.024 158.501  0.00  0.00     0.033 C 
HETATM    5  C   UNK N   1     153.374 146.540 158.855  0.00  0.00     0.027 C 
HETATM    6  C   UNK N   1     154.160 145.882 157.737  0.00  0.00     0.123 C 
HETATM    7  N   UNK N   1     154.000 146.782 156.632  0.00  0.00    -0.380 N 
HETATM    8  C   UNK N   1     153.439 148.057 156.982  0.00  0.00     0.129 C 
BRANCH   7   9
HETATM    9  C   UNK N   1     154.198 146.366 155.283  0.00  0.00     0.030 A 
HETATM   10  C   UNK N   1     153.838 147.213 154.222  0.00  0.00     0.032 A 
HETATM   11  C   UNK N   1     154.076 146.833 152.899  0.00  0.00     0.044 A 
HETATM   12  C   UNK N   1     154.688 145.608 152.624  0.00  0.00     0.116 A 
HETATM   13  F   UNK N   1     154.937 145.250 151.342  0.00  0.00    -0.206 F 
HETATM   14  C   UNK N   1     155.046 144.754 153.671  0.00  0.00     0.044 A 
HETATM   15  C   UNK N   1     154.798 145.128 154.996  0.00  0.00     0.032 A 
ENDBRANCH   7   9
ENDBRANCH   3   4
ENDBRANCH   1   3
BRANCH   1  16
HETATM   16  C   UNK N   1     156.727 149.084 158.255  0.00  0.00     0.310 C 
BRANCH  16  17
HETATM   17  C   UNK N   1     157.171 148.231 157.108  0.00  0.00    -0.003 A 
HETATM   18  C   UNK N   1     157.018 148.709 155.802  0.00  0.00     0.014 A 
HETATM   19  C   UNK N   1     157.451 147.950 154.712  0.00  0.00     0.044 A 
HETATM   20  C   UNK N   1     158.045 146.702 154.915  0.00  0.00     0.128 A 
HETATM   21  F   UNK N   1     158.471 145.984 153.845  0.00  0.00    -0.205 F 
HETATM   22  C   UNK N   1     158.199 146.206 156.216  0.00  0.00     0.030 A 
HETATM   23  C   UNK N   1     158.789 144.958 156.441  0.00  0.00     0.018 A 
HETATM   24  C   UNK N   1     157.759 146.969 157.324  0.00  0.00     0.053 A 
HETATM   25  C   UNK N   1     158.933 144.485 157.745  0.00  0.00     0.018 A 
HETATM   26  C   UNK N   1     158.487 145.265 158.814  0.00  0.00     0.088 A 
HETATM   27  N   UNK N   1     157.915 146.480 158.585  0.00  0.00    -0.365 N 
ATOM     28  HN  UNK N   1     157.597 147.037 159.378  1.00  0.00     0.165 HD
ENDBRANCH  16  17
ENDBRANCH   1  16
TORSDOF 5
ENDMDL
MODEL 9
REMARK VINA RESULT:      -5.2     12.549     14.191
REMARK  5 active torsions:
REMARK  status: ('A' for Active; 'I' for Inactive)
REMARK    1  A    between atoms: C_5  and  N_6 
REMARK    2  A    between atoms: C_9  and  C_10 
REMARK    3  A    between atoms: C_10  and  N_11 
REMARK    4  A    between atoms: N_11  and  C_12 
REMARK    5  A    between atoms: C_12  and  C_13 
ROOT
HETATM    1  N   UNK N   1     153.283 147.229 156.861  0.00  0.00     0.088 N 
HETATM    2  H   UNK N   1     152.269 147.206 156.956  0.00  0.00     0.316 HD
ENDROOT
BRANCH   1   3
HETATM    3  C   UNK N   1     153.727 148.564 156.482  0.00  0.00     0.276 C 
BRANCH   3   4
HETATM    4  C   UNK N   1     154.320 149.282 157.690  0.00  0.00     0.033 C 
HETATM    5  C   UNK N   1     155.564 150.048 157.246  0.00  0.00     0.027 C 
HETATM    6  C   UNK N   1     156.715 149.075 157.417  0.00  0.00     0.123 C 
HETATM    7  N   UNK N   1     156.242 148.159 158.414  0.00  0.00    -0.380 N 
HETATM    8  C   UNK N   1     154.839 148.266 158.700  0.00  0.00     0.129 C 
BRANCH   7   9
HETATM    9  C   UNK N   1     157.132 147.356 159.185  0.00  0.00     0.030 A 
HETATM   10  C   UNK N   1     156.653 146.629 160.287  0.00  0.00     0.032 A 
HETATM   11  C   UNK N   1     157.508 145.800 161.016  0.00  0.00     0.044 A 
HETATM   12  C   UNK N   1     158.849 145.680 160.643  0.00  0.00     0.116 A 
HETATM   13  F   UNK N   1     159.672 144.859 161.338  0.00  0.00    -0.206 F 
HETATM   14  C   UNK N   1     159.339 146.402 159.551  0.00  0.00     0.044 A 
HETATM   15  C   UNK N   1     158.486 147.241 158.827  0.00  0.00     0.032 A 
ENDBRANCH   7   9
ENDBRANCH   3   4
ENDBRANCH   1   3
BRANCH   1  16
HETATM   16  C   UNK N   1     153.720 146.277 155.848  0.00  0.00     0.310 C 
BRANCH  16  17
HETATM   17  C   UNK N   1     154.957 145.583 156.327  0.00  0.00    -0.003 A 
HETATM   18  C   UNK N   1     154.860 144.659 157.374  0.00  0.00     0.014 A 
HETATM   19  C   UNK N   1     155.990 143.972 157.822  0.00  0.00     0.044 A 
HETATM   20  C   UNK N   1     157.234 144.198 157.228  0.00  0.00     0.128 A 
HETATM   21  F   UNK N   1     158.318 143.513 157.668  0.00  0.00    -0.205 F 
HETATM   22  C   UNK N   1     157.349 145.125 156.184  0.00  0.00     0.030 A 
HETATM   23  C   UNK N   1     158.585 145.368 155.575  0.00  0.00     0.018 A 
HETATM   24  C   UNK N   1     156.208 145.828 155.727  0.00  0.00     0.053 A 
HETATM   25  C   UNK N   1     158.676 146.294 154.537  0.00  0.00     0.018 A 
HETATM   26  C   UNK N   1     157.529 146.969 154.114  0.00  0.00     0.088 A 
HETATM   27  N   UNK N   1     156.329 146.724 154.710  0.00  0.00    -0.365 N 
ATOM     28  HN  UNK N   1     155.502 147.224 154.386  1.00  0.00     0.165 HD
ENDBRANCH  16  17
ENDBRANCH   1  16
TORSDOF 5
ENDMDL
