MODEL 1
REMARK VINA RESULT:      -6.0      0.000      0.000
REMARK  5 active torsions:
REMARK  status: ('A' for Active; 'I' for Inactive)
REMARK    1  A    between atoms: C_7  and  C_8 
REMARK    2  A    between atoms: C_11  and  N_12 
REMARK    3  A    between atoms: N_12  and  C_13 
REMARK    4  A    between atoms: C_13  and  C_14 
REMARK    5  A    between atoms: C_18  and  C_19 
ROOT
HETATM    1  C   UNK N   1     169.491 148.297 155.921  0.00  0.00     0.017 A 
HETATM    2  C   UNK N   1     170.719 148.972 155.832  0.00  0.00     0.018 A 
HETATM    3  C   UNK N   1     170.761 150.307 155.397  0.00  0.00     0.030 A 
HETATM    4  C   UNK N   1     169.576 150.968 155.046  0.00  0.00     0.028 A 
HETATM    5  C   UNK N   1     168.353 150.287 155.145  0.00  0.00     0.030 A 
HETATM    6  C   UNK N   1     168.312 148.965 155.582  0.00  0.00     0.018 A 
ENDROOT
BRANCH   4   7
HETATM    7  N   UNK N   1     169.612 152.308 154.573  0.00  0.00    -0.385 N 
HETATM    8  H   UNK N   1     170.230 152.959 154.977  0.00  0.00     0.160 HD
BRANCH   7   9
HETATM    9  C   UNK N   1     168.737 152.710 153.496  0.00  0.00     0.167 C 
BRANCH   9  10
HETATM   10  C   UNK N   1     167.780 153.788 153.870  0.00  0.00     0.017 A 
HETATM   11  C   UNK N   1     167.012 153.801 155.041  0.00  0.00     0.104 A 
HETATM   12  N   UNK N   1     166.074 154.810 155.097  0.00  0.00    -0.362 N 
HETATM   13  C   UNK N   1     166.076 155.595 153.985  0.00  0.00     0.058 A 
ATOM     14  HN  UNK N   1     165.446 154.954 155.888  1.00  0.00     0.165 HD
HETATM   15  S   UNK N   1     167.242 155.043 152.937  0.00  0.00    -0.077 SA
BRANCH  13  16
HETATM   16  C   UNK N   1     165.111 156.732 153.775  0.00  0.00    -0.002 C 
HETATM   17  C   UNK N   1     164.374 156.523 152.466  0.00  0.00     0.021 C 
HETATM   18  C   UNK N   1     165.814 158.077 153.720  0.00  0.00     0.021 C 
HETATM   19  C   UNK N   1     164.100 156.762 154.904  0.00  0.00     0.021 C 
ENDBRANCH  13  16
ENDBRANCH   9  10
ENDBRANCH   7   9
ENDBRANCH   4   7
BRANCH   1  20
HETATM   20  C   UNK N   1     169.418 146.892 156.347  0.00  0.00     0.174 A 
HETATM   21  N   UNK N   1     168.282 146.217 156.609  0.00  0.00    -0.277 N 
HETATM   22  N   UNK N   1     168.644 144.997 156.976  0.00  0.00    -0.281 N 
ATOM     23  HN  UNK N   1     167.330 146.576 156.538  1.00  0.00     0.189 HD
HETATM   24  C   UNK N   1     169.989 144.964 156.926  0.00  0.00     0.136 A 
ATOM     25  HN  UNK N   1     168.025 144.231 157.243  1.00  0.00     0.189 HD
HETATM   26  C   UNK N   1     170.818 143.778 157.266  0.00  0.00     0.099 C 
HETATM   27  O   UNK N   1     170.463 146.122 156.542  0.00  0.00    -0.278 OA
ENDBRANCH   1  20
TORSDOF 5
ENDMDL
MODEL 2
REMARK VINA RESULT:      -6.0      4.451      9.289
REMARK  5 active torsions:
REMARK  status: ('A' for Active; 'I' for Inactive)
REMARK    1  A    between atoms: C_7  and  C_8 
REMARK    2  A    between atoms: C_11  and  N_12 
REMARK    3  A    between atoms: N_12  and  C_13 
REMARK    4  A    between atoms: C_13  and  C_14 
REMARK    5  A    between atoms: C_18  and  C_19 
ROOT
HETATM    1  C   UNK N   1     163.481 155.200 156.048  0.00  0.00     0.017 A 
HETATM    2  C   UNK N   1     164.285 154.222 156.656  0.00  0.00     0.018 A 
HETATM    3  C   UNK N   1     165.574 153.962 156.163  0.00  0.00     0.030 A 
HETATM    4  C   UNK N   1     166.060 154.675 155.058  0.00  0.00     0.028 A 
HETATM    5  C   UNK N   1     165.251 155.654 154.463  0.00  0.00     0.030 A 
HETATM    6  C   UNK N   1     163.975 155.916 154.956  0.00  0.00     0.018 A 
ENDROOT
BRANCH   4   7
HETATM    7  N   UNK N   1     167.350 154.394 154.532  0.00  0.00    -0.385 N 
HETATM    8  H   UNK N   1     167.706 154.925 153.783  0.00  0.00     0.160 HD
BRANCH   7   9
HETATM    9  C   UNK N   1     168.137 153.325 155.101  0.00  0.00     0.167 C 
BRANCH   9  10
HETATM   10  C   UNK N   1     168.617 152.333 154.099  0.00  0.00     0.017 A 
HETATM   11  C   UNK N   1     168.556 152.509 152.711  0.00  0.00     0.104 A 
HETATM   12  N   UNK N   1     168.901 151.393 151.978  0.00  0.00    -0.362 N 
HETATM   13  C   UNK N   1     169.227 150.329 152.761  0.00  0.00     0.058 A 
ATOM     14  HN  UNK N   1     168.911 151.368 150.959  1.00  0.00     0.165 HD
HETATM   15  S   UNK N   1     169.093 150.771 154.358  0.00  0.00    -0.077 SA
BRANCH  13  16
HETATM   16  C   UNK N   1     169.587 148.975 152.206  0.00  0.00    -0.002 C 
HETATM   17  C   UNK N   1     170.883 149.087 151.427  0.00  0.00     0.021 C 
HETATM   18  C   UNK N   1     168.514 148.434 151.277  0.00  0.00     0.021 C 
HETATM   19  C   UNK N   1     169.783 147.991 153.342  0.00  0.00     0.021 C 
ENDBRANCH  13  16
ENDBRANCH   9  10
ENDBRANCH   7   9
ENDBRANCH   4   7
BRANCH   1  20
HETATM   20  C   UNK N   1     162.118 155.476 156.525  0.00  0.00     0.174 A 
HETATM   21  N   UNK N   1     160.995 154.906 156.045  0.00  0.00    -0.277 N 
HETATM   22  N   UNK N   1     159.986 155.432 156.721  0.00  0.00    -0.281 N 
ATOM     23  HN  UNK N   1     160.936 154.206 155.305  1.00  0.00     0.189 HD
HETATM   24  C   UNK N   1     160.521 156.306 157.594  0.00  0.00     0.136 A 
ATOM     25  HN  UNK N   1     158.995 155.216 156.605  1.00  0.00     0.189 HD
HETATM   26  C   UNK N   1     159.739 157.128 158.554  0.00  0.00     0.099 C 
HETATM   27  O   UNK N   1     161.825 156.334 157.474  0.00  0.00    -0.278 OA
ENDBRANCH   1  20
TORSDOF 5
ENDMDL
MODEL 3
REMARK VINA RESULT:      -6.0     11.978     13.124
REMARK  5 active torsions:
REMARK  status: ('A' for Active; 'I' for Inactive)
REMARK    1  A    between atoms: C_7  and  C_8 
REMARK    2  A    between atoms: C_11  and  N_12 
REMARK    3  A    between atoms: N_12  and  C_13 
REMARK    4  A    between atoms: C_13  and  C_14 
REMARK    5  A    between atoms: C_18  and  C_19 
ROOT
HETATM    1  C   UNK N   1     160.331 146.903 163.740  0.00  0.00     0.017 A 
HETATM    2  C   UNK N   1     159.709 145.649 163.846  0.00  0.00     0.018 A 
HETATM    3  C   UNK N   1     159.421 144.903 162.691  0.00  0.00     0.030 A 
HETATM    4  C   UNK N   1     159.750 145.413 161.427  0.00  0.00     0.028 A 
HETATM    5  C   UNK N   1     160.377 146.665 161.333  0.00  0.00     0.030 A 
HETATM    6  C   UNK N   1     160.668 147.400 162.479  0.00  0.00     0.018 A 
ENDROOT
BRANCH   4   7
HETATM    7  N   UNK N   1     159.432 144.681 160.251  0.00  0.00    -0.385 N 
HETATM    8  H   UNK N   1     160.148 144.280 159.708  0.00  0.00     0.160 HD
BRANCH   7   9
HETATM    9  C   UNK N   1     158.050 144.528 159.856  0.00  0.00     0.167 C 
BRANCH   9  10
HETATM   10  C   UNK N   1     157.468 145.745 159.225  0.00  0.00     0.017 A 
HETATM   11  C   UNK N   1     156.468 146.539 159.800  0.00  0.00     0.104 A 
HETATM   12  N   UNK N   1     155.964 147.514 158.965  0.00  0.00    -0.362 N 
HETATM   13  C   UNK N   1     156.539 147.503 157.732  0.00  0.00     0.058 A 
ATOM     14  HN  UNK N   1     155.237 148.174 159.242  1.00  0.00     0.165 HD
HETATM   15  S   UNK N   1     157.675 146.290 157.678  0.00  0.00    -0.077 SA
BRANCH  13  16
HETATM   16  C   UNK N   1     156.127 148.431 156.620  0.00  0.00    -0.002 C 
HETATM   17  C   UNK N   1     156.058 149.848 157.155  0.00  0.00     0.021 C 
HETATM   18  C   UNK N   1     154.769 148.068 156.046  0.00  0.00     0.021 C 
HETATM   19  C   UNK N   1     157.152 148.380 155.504  0.00  0.00     0.021 C 
ENDBRANCH  13  16
ENDBRANCH   9  10
ENDBRANCH   7   9
ENDBRANCH   4   7
BRANCH   1  20
HETATM   20  C   UNK N   1     160.620 147.718 164.929  0.00  0.00     0.174 A 
HETATM   21  N   UNK N   1     160.387 147.345 166.203  0.00  0.00    -0.277 N 
HETATM   22  N   UNK N   1     160.765 148.358 166.967  0.00  0.00    -0.281 N 
ATOM     23  HN  UNK N   1     159.995 146.457 166.516  1.00  0.00     0.189 HD
HETATM   24  C   UNK N   1     161.219 149.317 166.139  0.00  0.00     0.136 A 
ATOM     25  HN  UNK N   1     160.723 148.402 167.986  1.00  0.00     0.189 HD
HETATM   26  C   UNK N   1     161.742 150.637 166.579  0.00  0.00     0.099 C 
HETATM   27  O   UNK N   1     161.129 148.927 164.892  0.00  0.00    -0.278 OA
ENDBRANCH   1  20
TORSDOF 5
ENDMDL
MODEL 4
REMARK VINA RESULT:      -5.9      5.704      7.178
REMARK  5 active torsions:
REMARK  status: ('A' for Active; 'I' for Inactive)
REMARK    1  A    between atoms: C_7  and  C_8 
REMARK    2  A    between atoms: C_11  and  N_12 
REMARK    3  A    between atoms: N_12  and  C_13 
REMARK    4  A    between atoms: C_13  and  C_14 
REMARK    5  A    between atoms: C_18  and  C_19 
ROOT
HETATM    1  C   UNK N   1     168.273 154.158 153.299  0.00  0.00     0.017 A 
HETATM    2  C   UNK N   1     168.874 155.384 153.626  0.00  0.00     0.018 A 
HETATM    3  C   UNK N   1     169.212 155.672 154.958  0.00  0.00     0.030 A 
HETATM    4  C   UNK N   1     168.944 154.738 155.968  0.00  0.00     0.028 A 
HETATM    5  C   UNK N   1     168.349 153.513 155.630  0.00  0.00     0.030 A 
HETATM    6  C   UNK N   1     168.021 153.225 154.307  0.00  0.00     0.018 A 
ENDROOT
BRANCH   4   7
HETATM    7  N   UNK N   1     169.251 155.034 157.323  0.00  0.00    -0.385 N 
HETATM    8  H   UNK N   1     170.186 155.163 157.603  0.00  0.00     0.160 HD
BRANCH   7   9
HETATM    9  C   UNK N   1     168.183 155.146 158.290  0.00  0.00     0.167 C 
BRANCH   9  10
HETATM   10  C   UNK N   1     167.481 156.459 158.261  0.00  0.00     0.017 A 
HETATM   11  C   UNK N   1     166.133 156.634 157.922  0.00  0.00     0.104 A 
HETATM   12  N   UNK N   1     165.743 157.951 157.799  0.00  0.00    -0.362 N 
HETATM   13  C   UNK N   1     166.760 158.826 158.025  0.00  0.00     0.058 A 
ATOM     14  HN  UNK N   1     164.793 158.239 157.564  1.00  0.00     0.165 HD
HETATM   15  S   UNK N   1     168.140 157.970 158.383  0.00  0.00    -0.077 SA
BRANCH  13  16
HETATM   16  C   UNK N   1     166.609 160.319 157.899  0.00  0.00    -0.002 C 
HETATM   17  C   UNK N   1     166.139 160.655 156.497  0.00  0.00     0.021 C 
HETATM   18  C   UNK N   1     167.915 161.051 158.155  0.00  0.00     0.021 C 
HETATM   19  C   UNK N   1     165.575 160.815 158.891  0.00  0.00     0.021 C 
ENDBRANCH  13  16
ENDBRANCH   9  10
ENDBRANCH   7   9
ENDBRANCH   4   7
BRANCH   1  20
HETATM   20  C   UNK N   1     167.885 153.839 151.917  0.00  0.00     0.174 A 
HETATM   21  N   UNK N   1     167.873 152.604 151.378  0.00  0.00    -0.277 N 
HETATM   22  N   UNK N   1     167.485 152.745 150.120  0.00  0.00    -0.281 N 
ATOM     23  HN  UNK N   1     168.116 151.732 151.848  1.00  0.00     0.189 HD
HETATM   24  C   UNK N   1     167.270 154.061 149.929  0.00  0.00     0.136 A 
ATOM     25  HN  UNK N   1     167.369 152.002 149.431  1.00  0.00     0.189 HD
HETATM   26  C   UNK N   1     166.823 154.667 148.648  0.00  0.00     0.099 C 
HETATM   27  O   UNK N   1     167.515 154.730 151.028  0.00  0.00    -0.278 OA
ENDBRANCH   1  20
TORSDOF 5
ENDMDL
MODEL 5
REMARK VINA RESULT:      -5.8      5.468      6.758
REMARK  5 active torsions:
REMARK  status: ('A' for Active; 'I' for Inactive)
REMARK    1  A    between atoms: C_7  and  C_8 
REMARK    2  A    between atoms: C_11  and  N_12 
REMARK    3  A    between atoms: N_12  and  C_13 
REMARK    4  A    between atoms: C_13  and  C_14 
REMARK    5  A    between atoms: C_18  and  C_19 
ROOT
HETATM    1  C   UNK N   1     168.252 154.090 153.313  0.00  0.00     0.017 A 
HETATM    2  C   UNK N   1     168.875 155.299 153.660  0.00  0.00     0.018 A 
HETATM    3  C   UNK N   1     169.167 155.584 155.003  0.00  0.00     0.030 A 
HETATM    4  C   UNK N   1     168.831 154.663 156.005  0.00  0.00     0.028 A 
HETATM    5  C   UNK N   1     168.214 153.454 155.647  0.00  0.00     0.030 A 
HETATM    6  C   UNK N   1     167.932 153.169 154.314  0.00  0.00     0.018 A 
ENDROOT
BRANCH   4   7
HETATM    7  N   UNK N   1     169.092 154.957 157.371  0.00  0.00    -0.385 N 
HETATM    8  H   UNK N   1     169.792 154.466 157.858  0.00  0.00     0.160 HD
BRANCH   7   9
HETATM    9  C   UNK N   1     168.322 155.980 158.041  0.00  0.00     0.167 C 
BRANCH   9  10
HETATM   10  C   UNK N   1     166.851 155.844 157.855  0.00  0.00     0.017 A 
HETATM   11  C   UNK N   1     166.065 154.836 158.429  0.00  0.00     0.104 A 
HETATM   12  N   UNK N   1     164.760 154.808 157.985  0.00  0.00    -0.362 N 
HETATM   13  C   UNK N   1     164.497 155.770 157.060  0.00  0.00     0.058 A 
ATOM     14  HN  UNK N   1     164.066 154.137 158.315  1.00  0.00     0.165 HD
HETATM   15  S   UNK N   1     165.877 156.659 156.796  0.00  0.00    -0.077 SA
BRANCH  13  16
HETATM   16  C   UNK N   1     163.162 155.917 156.378  0.00  0.00    -0.002 C 
HETATM   17  C   UNK N   1     163.139 157.222 155.607  0.00  0.00     0.021 C 
HETATM   18  C   UNK N   1     162.011 155.925 157.369  0.00  0.00     0.021 C 
HETATM   19  C   UNK N   1     162.954 154.773 155.406  0.00  0.00     0.021 C 
ENDBRANCH  13  16
ENDBRANCH   9  10
ENDBRANCH   7   9
ENDBRANCH   4   7
BRANCH   1  20
HETATM   20  C   UNK N   1     167.910 153.775 151.918  0.00  0.00     0.174 A 
HETATM   21  N   UNK N   1     167.963 152.549 151.362  0.00  0.00    -0.277 N 
HETATM   22  N   UNK N   1     167.599 152.692 150.097  0.00  0.00    -0.281 N 
ATOM     23  HN  UNK N   1     168.231 151.681 151.825  1.00  0.00     0.189 HD
HETATM   24  C   UNK N   1     167.335 154.001 149.919  0.00  0.00     0.136 A 
ATOM     25  HN  UNK N   1     167.531 151.956 149.395  1.00  0.00     0.189 HD
HETATM   26  C   UNK N   1     166.894 154.607 148.635  0.00  0.00     0.099 C 
HETATM   27  O   UNK N   1     167.526 154.664 151.032  0.00  0.00    -0.278 OA
ENDBRANCH   1  20
TORSDOF 5
ENDMDL
MODEL 6
REMARK VINA RESULT:      -5.7      2.783      4.138
REMARK  5 active torsions:
REMARK  status: ('A' for Active; 'I' for Inactive)
REMARK    1  A    between atoms: C_7  and  C_8 
REMARK    2  A    between atoms: C_11  and  N_12 
REMARK    3  A    between atoms: N_12  and  C_13 
REMARK    4  A    between atoms: C_13  and  C_14 
REMARK    5  A    between atoms: C_18  and  C_19 
ROOT
HETATM    1  C   UNK N   1     168.355 152.229 154.693  0.00  0.00     0.017 A 
HETATM    2  C   UNK N   1     168.365 153.119 155.779  0.00  0.00     0.018 A 
HETATM    3  C   UNK N   1     168.598 154.487 155.568  0.00  0.00     0.030 A 
HETATM    4  C   UNK N   1     168.827 154.968 154.272  0.00  0.00     0.028 A 
HETATM    5  C   UNK N   1     168.808 154.072 153.192  0.00  0.00     0.030 A 
HETATM    6  C   UNK N   1     168.570 152.716 153.402  0.00  0.00     0.018 A 
ENDROOT
BRANCH   4   7
HETATM    7  N   UNK N   1     169.098 156.346 154.052  0.00  0.00    -0.385 N 
HETATM    8  H   UNK N   1     169.973 156.725 154.298  0.00  0.00     0.160 HD
BRANCH   7   9
HETATM    9  C   UNK N   1     168.081 157.190 153.467  0.00  0.00     0.167 C 
BRANCH   9  10
HETATM   10  C   UNK N   1     166.886 157.381 154.334  0.00  0.00     0.017 A 
HETATM   11  C   UNK N   1     166.889 158.068 155.555  0.00  0.00     0.104 A 
HETATM   12  N   UNK N   1     165.711 157.974 156.265  0.00  0.00    -0.362 N 
HETATM   13  C   UNK N   1     164.773 157.216 155.634  0.00  0.00     0.058 A 
ATOM     14  HN  UNK N   1     165.558 158.424 157.167  1.00  0.00     0.165 HD
HETATM   15  S   UNK N   1     165.400 156.668 154.196  0.00  0.00    -0.077 SA
BRANCH  13  16
HETATM   16  C   UNK N   1     163.421 156.913 156.225  0.00  0.00    -0.002 C 
HETATM   17  C   UNK N   1     162.928 155.586 155.682  0.00  0.00     0.021 C 
HETATM   18  C   UNK N   1     162.396 157.981 155.885  0.00  0.00     0.021 C 
HETATM   19  C   UNK N   1     163.532 156.813 157.733  0.00  0.00     0.021 C 
ENDBRANCH  13  16
ENDBRANCH   9  10
ENDBRANCH   7   9
ENDBRANCH   4   7
BRANCH   1  20
HETATM   20  C   UNK N   1     168.140 150.787 154.885  0.00  0.00     0.174 A 
HETATM   21  N   UNK N   1     168.085 149.870 153.900  0.00  0.00    -0.277 N 
HETATM   22  N   UNK N   1     167.860 148.703 154.481  0.00  0.00    -0.281 N 
ATOM     23  HN  UNK N   1     168.195 150.043 152.900  1.00  0.00     0.189 HD
HETATM   24  C   UNK N   1     167.784 148.940 155.805  0.00  0.00     0.136 A 
ATOM     25  HN  UNK N   1     167.764 147.798 154.019  1.00  0.00     0.189 HD
HETATM   26  C   UNK N   1     167.537 147.901 156.838  0.00  0.00     0.099 C 
HETATM   27  O   UNK N   1     167.954 150.215 156.052  0.00  0.00    -0.278 OA
ENDBRANCH   1  20
TORSDOF 5
ENDMDL
MODEL 7
REMARK VINA RESULT:      -5.6     11.001     11.884
REMARK  5 active torsions:
REMARK  status: ('A' for Active; 'I' for Inactive)
REMARK    1  A    between atoms: C_7  and  C_8 
REMARK    2  A    between atoms: C_11  and  N_12 
REMARK    3  A    between atoms: N_12  and  C_13 
REMARK    4  A    between atoms: C_13  and  C_14 
REMARK    5  A    between atoms: C_18  and  C_19 
ROOT
HETATM    1  C   UNK N   1     162.599 147.498 164.050  0.00  0.00     0.017 A 
HETATM    2  C   UNK N   1     161.335 147.548 164.659  0.00  0.00     0.018 A 
HETATM    3  C   UNK N   1     160.172 147.435 163.880  0.00  0.00     0.030 A 
HETATM    4  C   UNK N   1     160.270 147.277 162.491  0.00  0.00     0.028 A 
HETATM    5  C   UNK N   1     161.539 147.223 161.893  0.00  0.00     0.030 A 
HETATM    6  C   UNK N   1     162.692 147.328 162.667  0.00  0.00     0.018 A 
ENDROOT
BRANCH   4   7
HETATM    7  N   UNK N   1     159.098 147.196 161.691  0.00  0.00    -0.385 N 
HETATM    8  H   UNK N   1     158.420 147.908 161.732  0.00  0.00     0.160 HD
BRANCH   7   9
HETATM    9  C   UNK N   1     158.907 146.061 160.816  0.00  0.00     0.167 C 
BRANCH   9  10
HETATM   10  C   UNK N   1     158.258 146.404 159.520  0.00  0.00     0.017 A 
HETATM   11  C   UNK N   1     158.587 145.828 158.287  0.00  0.00     0.104 A 
HETATM   12  N   UNK N   1     157.976 146.418 157.201  0.00  0.00    -0.362 N 
HETATM   13  C   UNK N   1     157.173 147.459 157.549  0.00  0.00     0.058 A 
ATOM     14  HN  UNK N   1     158.111 146.106 156.239  1.00  0.00     0.165 HD
HETATM   15  S   UNK N   1     157.215 147.646 159.200  0.00  0.00    -0.077 SA
BRANCH  13  16
HETATM   16  C   UNK N   1     156.435 148.305 156.544  0.00  0.00    -0.002 C 
HETATM   17  C   UNK N   1     155.108 147.646 156.219  0.00  0.00     0.021 C 
HETATM   18  C   UNK N   1     157.216 148.471 155.252  0.00  0.00     0.021 C 
HETATM   19  C   UNK N   1     156.167 149.678 157.127  0.00  0.00     0.021 C 
ENDBRANCH  13  16
ENDBRANCH   9  10
ENDBRANCH   7   9
ENDBRANCH   4   7
BRANCH   1  20
HETATM   20  C   UNK N   1     163.834 147.641 164.836  0.00  0.00     0.174 A 
HETATM   21  N   UNK N   1     163.953 147.381 166.153  0.00  0.00    -0.277 N 
HETATM   22  N   UNK N   1     165.207 147.650 166.479  0.00  0.00    -0.281 N 
ATOM     23  HN  UNK N   1     163.219 147.043 166.776  1.00  0.00     0.189 HD
HETATM   24  C   UNK N   1     165.817 148.065 165.353  0.00  0.00     0.136 A 
ATOM     25  HN  UNK N   1     165.630 147.558 167.403  1.00  0.00     0.189 HD
HETATM   26  C   UNK N   1     167.243 148.476 165.266  0.00  0.00     0.099 C 
HETATM   27  O   UNK N   1     164.978 148.061 164.348  0.00  0.00    -0.278 OA
ENDBRANCH   1  20
TORSDOF 5
ENDMDL
MODEL 8
REMARK VINA RESULT:      -5.6     11.946     13.011
REMARK  5 active torsions:
REMARK  status: ('A' for Active; 'I' for Inactive)
REMARK    1  A    between atoms: C_7  and  C_8 
REMARK    2  A    between atoms: C_11  and  N_12 
REMARK    3  A    between atoms: N_12  and  C_13 
REMARK    4  A    between atoms: C_13  and  C_14 
REMARK    5  A    between atoms: C_18  and  C_19 
ROOT
HETATM    1  C   UNK N   1     160.682 146.269 162.764  0.00  0.00     0.017 A 
HETATM    2  C   UNK N   1     160.459 146.671 161.438  0.00  0.00     0.018 A 
HETATM    3  C   UNK N   1     159.405 146.111 160.698  0.00  0.00     0.030 A 
HETATM    4  C   UNK N   1     158.574 145.145 161.281  0.00  0.00     0.028 A 
HETATM    5  C   UNK N   1     158.800 144.755 162.610  0.00  0.00     0.030 A 
HETATM    6  C   UNK N   1     159.842 145.315 163.345  0.00  0.00     0.018 A 
ENDROOT
BRANCH   4   7
HETATM    7  N   UNK N   1     157.525 144.549 160.529  0.00  0.00    -0.385 N 
HETATM    8  H   UNK N   1     157.720 143.815 159.903  0.00  0.00     0.160 HD
BRANCH   7   9
HETATM    9  C   UNK N   1     156.170 145.027 160.688  0.00  0.00     0.167 C 
BRANCH   9  10
HETATM   10  C   UNK N   1     155.856 146.226 159.862  0.00  0.00     0.017 A 
HETATM   11  C   UNK N   1     154.857 147.161 160.162  0.00  0.00     0.104 A 
HETATM   12  N   UNK N   1     154.632 148.092 159.171  0.00  0.00    -0.362 N 
HETATM   13  C   UNK N   1     155.428 147.909 158.083  0.00  0.00     0.058 A 
ATOM     14  HN  UNK N   1     153.942 148.840 159.245  1.00  0.00     0.165 HD
HETATM   15  S   UNK N   1     156.414 146.597 158.350  0.00  0.00    -0.077 SA
BRANCH  13  16
HETATM   16  C   UNK N   1     155.340 148.758 156.842  0.00  0.00    -0.002 C 
HETATM   17  C   UNK N   1     154.992 150.180 157.237  0.00  0.00     0.021 C 
HETATM   18  C   UNK N   1     154.280 148.255 155.878  0.00  0.00     0.021 C 
HETATM   19  C   UNK N   1     156.678 148.764 156.129  0.00  0.00     0.021 C 
ENDBRANCH  13  16
ENDBRANCH   9  10
ENDBRANCH   7   9
ENDBRANCH   4   7
BRANCH   1  20
HETATM   20  C   UNK N   1     161.794 146.817 163.555  0.00  0.00     0.174 A 
HETATM   21  N   UNK N   1     163.055 146.343 163.556  0.00  0.00    -0.277 N 
HETATM   22  N   UNK N   1     163.740 147.093 164.405  0.00  0.00    -0.281 N 
ATOM     23  HN  UNK N   1     163.412 145.560 163.008  1.00  0.00     0.189 HD
HETATM   24  C   UNK N   1     162.877 148.002 164.898  0.00  0.00     0.136 A 
ATOM     25  HN  UNK N   1     164.728 147.002 164.640  1.00  0.00     0.189 HD
HETATM   26  C   UNK N   1     163.227 149.046 165.896  0.00  0.00     0.099 C 
HETATM   27  O   UNK N   1     161.686 147.833 164.379  0.00  0.00    -0.278 OA
ENDBRANCH   1  20
TORSDOF 5
ENDMDL
MODEL 9
REMARK VINA RESULT:      -5.4     12.408     13.358
REMARK  5 active torsions:
REMARK  status: ('A' for Active; 'I' for Inactive)
REMARK    1  A    between atoms: C_7  and  C_8 
REMARK    2  A    between atoms: C_11  and  N_12 
REMARK    3  A    between atoms: N_12  and  C_13 
REMARK    4  A    between atoms: C_13  and  C_14 
REMARK    5  A    between atoms: C_18  and  C_19 
ROOT
HETATM    1  C   UNK N   1     158.681 146.622 158.692  0.00  0.00     0.017 A 
HETATM    2  C   UNK N   1     158.115 147.844 158.296  0.00  0.00     0.018 A 
HETATM    3  C   UNK N   1     157.425 147.941 157.078  0.00  0.00     0.030 A 
HETATM    4  C   UNK N   1     157.303 146.817 156.249  0.00  0.00     0.028 A 
HETATM    5  C   UNK N   1     157.867 145.599 156.657  0.00  0.00     0.030 A 
HETATM    6  C   UNK N   1     158.545 145.502 157.869  0.00  0.00     0.018 A 
ENDROOT
BRANCH   4   7
HETATM    7  N   UNK N   1     156.635 146.914 154.998  0.00  0.00    -0.385 N 
HETATM    8  H   UNK N   1     156.534 147.788 154.557  0.00  0.00     0.160 HD
BRANCH   7   9
HETATM    9  C   UNK N   1     156.106 145.722 154.376  0.00  0.00     0.167 C 
BRANCH   9  10
HETATM   10  C   UNK N   1     155.885 145.856 152.909  0.00  0.00     0.017 A 
HETATM   11  C   UNK N   1     155.009 146.775 152.317  0.00  0.00     0.104 A 
HETATM   12  N   UNK N   1     154.840 146.607 150.959  0.00  0.00    -0.362 N 
HETATM   13  C   UNK N   1     155.559 145.564 150.462  0.00  0.00     0.058 A 
ATOM     14  HN  UNK N   1     154.239 147.201 150.387  1.00  0.00     0.165 HD
HETATM   15  S   UNK N   1     156.408 144.855 151.703  0.00  0.00    -0.077 SA
BRANCH  13  16
HETATM   16  C   UNK N   1     155.506 145.137 149.019  0.00  0.00    -0.002 C 
HETATM   17  C   UNK N   1     156.862 145.370 148.382  0.00  0.00     0.021 C 
HETATM   18  C   UNK N   1     154.466 145.913 148.231  0.00  0.00     0.021 C 
HETATM   19  C   UNK N   1     155.173 143.660 148.933  0.00  0.00     0.021 C 
ENDBRANCH  13  16
ENDBRANCH   9  10
ENDBRANCH   7   9
ENDBRANCH   4   7
BRANCH   1  20
HETATM   20  C   UNK N   1     159.432 146.496 159.950  0.00  0.00     0.174 A 
HETATM   21  N   UNK N   1     160.605 147.102 160.219  0.00  0.00    -0.277 N 
HETATM   22  N   UNK N   1     160.956 146.721 161.438  0.00  0.00    -0.281 N 
ATOM     23  HN  UNK N   1     161.121 147.731 159.604  1.00  0.00     0.189 HD
HETATM   24  C   UNK N   1     159.987 145.895 161.876  0.00  0.00     0.136 A 
ATOM     25  HN  UNK N   1     161.795 147.000 161.946  1.00  0.00     0.189 HD
HETATM   26  C   UNK N   1     159.982 145.229 163.205  0.00  0.00     0.099 C 
HETATM   27  O   UNK N   1     159.056 145.756 160.966  0.00  0.00    -0.278 OA
ENDBRANCH   1  20
TORSDOF 5
ENDMDL
