MODEL 1
REMARK VINA RESULT:      -7.0      0.000      0.000
REMARK  5 active torsions:
REMARK  status: ('A' for Active; 'I' for Inactive)
REMARK    1  A    between atoms: O_2  and  C_3 
REMARK    2  A    between atoms: C_5  and  C_3 
REMARK    3  A    between atoms: C_7  and  C_8 
REMARK       I    between atoms: N_15  and  C_16 
REMARK    4  A    between atoms: C_16  and  C_18 
REMARK    5  A    between atoms: C_18  and  N_19 
ROOT
HETATM    1  C   UNK N   1     165.699 154.850 158.548  0.00  0.00     0.104 C 
HETATM    2  C   UNK N   1     165.936 156.364 158.554  0.00  0.00     0.027 C 
HETATM    3  C   UNK N   1     167.034 156.781 157.572  0.00  0.00     0.037 C 
HETATM    4  C   UNK N   1     166.718 156.254 156.172  0.00  0.00     0.135 C 
HETATM    5  N   UNK N   1     166.448 154.836 156.236  0.00  0.00    -0.349 N 
HETATM    6  C   UNK N   1     167.159 153.950 155.487  0.00  0.00     0.239 C 
HETATM    7  O   UNK N   1     166.909 152.754 155.557  0.00  0.00    -0.271 OA
HETATM    8  C   UNK N   1     165.402 154.380 157.124  0.00  0.00     0.140 C 
ENDROOT
BRANCH   6   9
HETATM    9  C   UNK N   1     168.255 154.432 154.567  0.00  0.00     0.257 C 
BRANCH   9  10
HETATM   10  N   UNK N   1     167.925 154.150 153.180  0.00  0.00    -0.232 N 
HETATM   11  N   UNK N   1     167.177 154.935 152.409  0.00  0.00    -0.278 N 
HETATM   12  C   UNK N   1     167.151 154.351 151.191  0.00  0.00     0.130 A 
ATOM     13  HN  UNK N   1     166.716 155.802 152.684  1.00  0.00     0.189 HD
HETATM   14  C   UNK N   1     166.502 154.815 150.055  0.00  0.00     0.050 A 
HETATM   15  N   UNK N   1     167.867 153.213 151.172  0.00  0.00    -0.258 N 
HETATM   16  C   UNK N   1     166.625 154.045 148.885  0.00  0.00     0.005 A 
HETATM   17  C   UNK N   1     167.383 152.854 148.889  0.00  0.00     0.018 A 
HETATM   18  C   UNK N   1     168.015 152.439 150.071  0.00  0.00     0.103 A 
HETATM   19  C   UNK N   1     168.345 153.101 152.428  0.00  0.00     0.349 A 
HETATM   20  O   UNK N   1     169.062 152.199 152.827  0.00  0.00    -0.244 OA
ENDBRANCH   9  10
ENDBRANCH   6   9
BRANCH   3  21
HETATM   21  C   UNK N   1     167.112 158.272 157.539  0.00  0.00    -0.052 A 
HETATM   22  C   UNK N   1     166.365 158.990 156.599  0.00  0.00     0.007 A 
HETATM   23  C   UNK N   1     166.447 160.386 156.561  0.00  0.00     0.001 A 
HETATM   24  C   UNK N   1     167.276 161.066 157.460  0.00  0.00     0.000 A 
HETATM   25  C   UNK N   1     168.023 160.352 158.400  0.00  0.00     0.001 A 
HETATM   26  C   UNK N   1     167.942 158.959 158.440  0.00  0.00     0.007 A 
ENDBRANCH   3  21
BRANCH   1  27
HETATM   27  C   UNK N   1     164.550 154.469 159.441  0.00  0.00     0.264 C 
HETATM   28  O   UNK N   1     163.474 154.137 158.959  0.00  0.00    -0.265 OA
BRANCH  27  29
HETATM   29  O   UNK N   1     164.721 154.494 160.785  0.00  0.00    -0.326 OA
HETATM   30  C   UNK N   1     165.923 154.180 161.377  0.00  0.00     0.213 C 
ENDBRANCH  27  29
ENDBRANCH   1  27
TORSDOF 5
ENDMDL
MODEL 2
REMARK VINA RESULT:      -6.9      1.976      3.134
REMARK  5 active torsions:
REMARK  status: ('A' for Active; 'I' for Inactive)
REMARK    1  A    between atoms: O_2  and  C_3 
REMARK    2  A    between atoms: C_5  and  C_3 
REMARK    3  A    between atoms: C_7  and  C_8 
REMARK       I    between atoms: N_15  and  C_16 
REMARK    4  A    between atoms: C_16  and  C_18 
REMARK    5  A    between atoms: C_18  and  N_19 
ROOT
HETATM    1  C   UNK N   1     165.461 155.088 158.795  0.00  0.00     0.104 C 
HETATM    2  C   UNK N   1     165.787 156.584 158.729  0.00  0.00     0.027 C 
HETATM    3  C   UNK N   1     166.848 156.897 157.670  0.00  0.00     0.037 C 
HETATM    4  C   UNK N   1     166.419 156.342 156.312  0.00  0.00     0.135 C 
HETATM    5  N   UNK N   1     166.070 154.946 156.447  0.00  0.00    -0.349 N 
HETATM    6  C   UNK N   1     166.682 153.993 155.694  0.00  0.00     0.239 C 
HETATM    7  O   UNK N   1     166.367 152.817 155.824  0.00  0.00    -0.271 OA
HETATM    8  C   UNK N   1     165.053 154.586 157.410  0.00  0.00     0.140 C 
ENDROOT
BRANCH   6   9
HETATM    9  C   UNK N   1     167.748 154.374 154.694  0.00  0.00     0.257 C 
BRANCH   9  10
HETATM   10  N   UNK N   1     168.551 153.218 154.332  0.00  0.00    -0.232 N 
HETATM   11  N   UNK N   1     169.246 152.483 155.197  0.00  0.00    -0.278 N 
HETATM   12  C   UNK N   1     169.806 151.486 154.477  0.00  0.00     0.130 A 
ATOM     13  HN  UNK N   1     169.337 152.642 156.200  1.00  0.00     0.189 HD
HETATM   14  C   UNK N   1     170.614 150.462 154.954  0.00  0.00     0.050 A 
HETATM   15  N   UNK N   1     169.481 151.572 153.175  0.00  0.00    -0.258 N 
HETATM   16  C   UNK N   1     171.076 149.520 154.019  0.00  0.00     0.005 A 
HETATM   17  C   UNK N   1     170.721 149.630 152.656  0.00  0.00     0.018 A 
HETATM   18  C   UNK N   1     169.901 150.689 152.238  0.00  0.00     0.103 A 
HETATM   19  C   UNK N   1     168.695 152.665 153.101  0.00  0.00     0.349 A 
HETATM   20  O   UNK N   1     168.174 153.086 152.082  0.00  0.00    -0.244 OA
ENDBRANCH   9  10
ENDBRANCH   6   9
BRANCH   3  21
HETATM   21  C   UNK N   1     167.011 158.380 157.574  0.00  0.00    -0.052 A 
HETATM   22  C   UNK N   1     167.906 159.040 158.422  0.00  0.00     0.007 A 
HETATM   23  C   UNK N   1     168.050 160.429 158.339  0.00  0.00     0.001 A 
HETATM   24  C   UNK N   1     167.299 161.159 157.412  0.00  0.00     0.000 A 
HETATM   25  C   UNK N   1     166.404 160.502 156.564  0.00  0.00     0.001 A 
HETATM   26  C   UNK N   1     166.260 159.117 156.644  0.00  0.00     0.007 A 
ENDBRANCH   3  21
BRANCH   1  27
HETATM   27  C   UNK N   1     164.346 154.810 159.766  0.00  0.00     0.264 C 
HETATM   28  O   UNK N   1     164.582 154.278 160.844  0.00  0.00    -0.265 OA
BRANCH  27  29
HETATM   29  O   UNK N   1     163.080 155.158 159.436  0.00  0.00    -0.326 OA
HETATM   30  C   UNK N   1     162.012 154.922 160.271  0.00  0.00     0.213 C 
ENDBRANCH  27  29
ENDBRANCH   1  27
TORSDOF 5
ENDMDL
MODEL 3
REMARK VINA RESULT:      -6.8      2.571      3.473
REMARK  5 active torsions:
REMARK  status: ('A' for Active; 'I' for Inactive)
REMARK    1  A    between atoms: O_2  and  C_3 
REMARK    2  A    between atoms: C_5  and  C_3 
REMARK    3  A    between atoms: C_7  and  C_8 
REMARK       I    between atoms: N_15  and  C_16 
REMARK    4  A    between atoms: C_16  and  C_18 
REMARK    5  A    between atoms: C_18  and  N_19 
ROOT
HETATM    1  C   UNK N   1     163.290 156.878 156.812  0.00  0.00     0.104 C 
HETATM    2  C   UNK N   1     164.336 157.797 157.454  0.00  0.00     0.027 C 
HETATM    3  C   UNK N   1     165.671 157.760 156.707  0.00  0.00     0.037 C 
HETATM    4  C   UNK N   1     165.458 158.078 155.227  0.00  0.00     0.135 C 
HETATM    5  N   UNK N   1     164.424 157.222 154.691  0.00  0.00    -0.349 N 
HETATM    6  C   UNK N   1     164.659 156.424 153.614  0.00  0.00     0.239 C 
HETATM    7  O   UNK N   1     163.766 155.711 153.177  0.00  0.00    -0.271 OA
HETATM    8  C   UNK N   1     163.129 157.231 155.334  0.00  0.00     0.140 C 
ENDROOT
BRANCH   6   9
HETATM    9  C   UNK N   1     166.016 156.414 152.951  0.00  0.00     0.257 C 
BRANCH   9  10
HETATM   10  N   UNK N   1     166.752 155.212 153.303  0.00  0.00    -0.232 N 
HETATM   11  N   UNK N   1     166.662 154.589 154.475  0.00  0.00    -0.278 N 
HETATM   12  C   UNK N   1     167.455 153.499 154.383  0.00  0.00     0.130 A 
ATOM     13  HN  UNK N   1     166.106 154.877 155.280  1.00  0.00     0.189 HD
HETATM   14  C   UNK N   1     167.671 152.537 155.362  0.00  0.00     0.050 A 
HETATM   15  N   UNK N   1     168.046 153.416 153.178  0.00  0.00    -0.258 N 
HETATM   16  C   UNK N   1     168.532 151.475 155.038  0.00  0.00     0.005 A 
HETATM   17  C   UNK N   1     169.141 151.408 153.766  0.00  0.00     0.018 A 
HETATM   18  C   UNK N   1     168.882 152.412 152.821  0.00  0.00     0.103 A 
HETATM   19  C   UNK N   1     167.595 154.499 152.513  0.00  0.00     0.349 A 
HETATM   20  O   UNK N   1     167.888 154.787 151.365  0.00  0.00    -0.244 OA
ENDBRANCH   9  10
ENDBRANCH   6   9
BRANCH   3  21
HETATM   21  C   UNK N   1     166.588 158.776 157.308  0.00  0.00    -0.052 A 
HETATM   22  C   UNK N   1     166.432 160.130 156.996  0.00  0.00     0.007 A 
HETATM   23  C   UNK N   1     167.299 161.078 157.550  0.00  0.00     0.001 A 
HETATM   24  C   UNK N   1     168.322 160.675 158.415  0.00  0.00     0.000 A 
HETATM   25  C   UNK N   1     168.479 159.323 158.729  0.00  0.00     0.001 A 
HETATM   26  C   UNK N   1     167.616 158.375 158.178  0.00  0.00     0.007 A 
ENDBRANCH   3  21
BRANCH   1  27
HETATM   27  C   UNK N   1     161.955 157.002 157.495  0.00  0.00     0.264 C 
HETATM   28  O   UNK N   1     160.930 157.115 156.836  0.00  0.00    -0.265 OA
BRANCH  27  29
HETATM   29  O   UNK N   1     161.901 156.982 158.849  0.00  0.00    -0.326 OA
HETATM   30  C   UNK N   1     161.777 155.812 159.562  0.00  0.00     0.213 C 
ENDBRANCH  27  29
ENDBRANCH   1  27
TORSDOF 5
ENDMDL
MODEL 4
REMARK VINA RESULT:      -6.8      3.230      7.284
REMARK  5 active torsions:
REMARK  status: ('A' for Active; 'I' for Inactive)
REMARK    1  A    between atoms: O_2  and  C_3 
REMARK    2  A    between atoms: C_5  and  C_3 
REMARK    3  A    between atoms: C_7  and  C_8 
REMARK       I    between atoms: N_15  and  C_16 
REMARK    4  A    between atoms: C_16  and  C_18 
REMARK    5  A    between atoms: C_18  and  N_19 
ROOT
HETATM    1  C   UNK N   1     166.018 155.628 154.991  0.00  0.00     0.104 C 
HETATM    2  C   UNK N   1     166.563 156.987 155.445  0.00  0.00     0.027 C 
HETATM    3  C   UNK N   1     165.978 157.423 156.791  0.00  0.00     0.037 C 
HETATM    4  C   UNK N   1     166.201 156.335 157.841  0.00  0.00     0.135 C 
HETATM    5  N   UNK N   1     165.722 155.068 157.337  0.00  0.00    -0.349 N 
HETATM    6  C   UNK N   1     164.789 154.348 158.018  0.00  0.00     0.239 C 
HETATM    7  O   UNK N   1     164.401 153.276 157.572  0.00  0.00    -0.271 OA
HETATM    8  C   UNK N   1     166.257 154.586 156.083  0.00  0.00     0.140 C 
ENDROOT
BRANCH   6   9
HETATM    9  C   UNK N   1     164.229 154.860 159.323  0.00  0.00     0.257 C 
BRANCH   9  10
HETATM   10  N   UNK N   1     162.889 155.389 159.136  0.00  0.00    -0.232 N 
HETATM   11  N   UNK N   1     162.253 155.435 157.969  0.00  0.00    -0.278 N 
HETATM   12  C   UNK N   1     161.028 155.943 158.228  0.00  0.00     0.130 A 
ATOM     13  HN  UNK N   1     162.618 155.146 157.061  1.00  0.00     0.189 HD
HETATM   14  C   UNK N   1     160.005 156.167 157.315  0.00  0.00     0.050 A 
HETATM   15  N   UNK N   1     160.872 156.220 159.534  0.00  0.00    -0.258 N 
HETATM   16  C   UNK N   1     158.802 156.693 157.815  0.00  0.00     0.005 A 
HETATM   17  C   UNK N   1     158.661 156.975 159.191  0.00  0.00     0.018 A 
HETATM   18  C   UNK N   1     159.733 156.726 160.062  0.00  0.00     0.103 A 
HETATM   19  C   UNK N   1     162.049 155.867 160.090  0.00  0.00     0.349 A 
HETATM   20  O   UNK N   1     162.316 155.950 161.277  0.00  0.00    -0.244 OA
ENDBRANCH   9  10
ENDBRANCH   6   9
BRANCH   3  21
HETATM   21  C   UNK N   1     166.653 158.683 157.226  0.00  0.00    -0.052 A 
HETATM   22  C   UNK N   1     167.697 158.631 158.156  0.00  0.00     0.007 A 
HETATM   23  C   UNK N   1     168.320 159.812 158.571  0.00  0.00     0.001 A 
HETATM   24  C   UNK N   1     167.903 161.045 158.059  0.00  0.00     0.000 A 
HETATM   25  C   UNK N   1     166.861 161.100 157.130  0.00  0.00     0.001 A 
HETATM   26  C   UNK N   1     166.238 159.923 156.713  0.00  0.00     0.007 A 
ENDBRANCH   3  21
BRANCH   1  27
HETATM   27  C   UNK N   1     166.678 155.168 153.720  0.00  0.00     0.264 C 
HETATM   28  O   UNK N   1     166.355 155.654 152.644  0.00  0.00    -0.265 OA
BRANCH  27  29
HETATM   29  O   UNK N   1     167.636 154.212 153.781  0.00  0.00    -0.326 OA
HETATM   30  C   UNK N   1     168.954 154.473 153.483  0.00  0.00     0.213 C 
ENDBRANCH  27  29
ENDBRANCH   1  27
TORSDOF 5
ENDMDL
MODEL 5
REMARK VINA RESULT:      -6.8      3.415      5.502
REMARK  5 active torsions:
REMARK  status: ('A' for Active; 'I' for Inactive)
REMARK    1  A    between atoms: O_2  and  C_3 
REMARK    2  A    between atoms: C_5  and  C_3 
REMARK    3  A    between atoms: C_7  and  C_8 
REMARK       I    between atoms: N_15  and  C_16 
REMARK    4  A    between atoms: C_16  and  C_18 
REMARK    5  A    between atoms: C_18  and  N_19 
ROOT
HETATM    1  C   UNK N   1     165.751 159.271 155.883  0.00  0.00     0.104 C 
HETATM    2  C   UNK N   1     164.499 158.795 156.629  0.00  0.00     0.027 C 
HETATM    3  C   UNK N   1     164.015 157.431 156.133  0.00  0.00     0.037 C 
HETATM    4  C   UNK N   1     165.150 156.409 156.205  0.00  0.00     0.135 C 
HETATM    5  N   UNK N   1     166.319 156.934 155.536  0.00  0.00    -0.349 N 
HETATM    6  C   UNK N   1     166.909 156.255 154.516  0.00  0.00     0.239 C 
HETATM    7  O   UNK N   1     167.899 156.719 153.967  0.00  0.00    -0.271 OA
HETATM    8  C   UNK N   1     166.843 158.207 155.977  0.00  0.00     0.140 C 
ENDROOT
BRANCH   6   9
HETATM    9  C   UNK N   1     166.352 154.929 154.055  0.00  0.00     0.257 C 
BRANCH   9  10
HETATM   10  N   UNK N   1     167.323 153.866 154.250  0.00  0.00    -0.232 N 
HETATM   11  N   UNK N   1     168.250 153.522 153.360  0.00  0.00    -0.278 N 
HETATM   12  C   UNK N   1     168.976 152.538 153.936  0.00  0.00     0.130 A 
ATOM     13  HN  UNK N   1     168.385 153.920 152.431  1.00  0.00     0.189 HD
HETATM   14  C   UNK N   1     170.064 151.871 153.388  0.00  0.00     0.050 A 
HETATM   15  N   UNK N   1     168.530 152.252 155.172  0.00  0.00    -0.258 N 
HETATM   16  C   UNK N   1     170.679 150.886 154.181  0.00  0.00     0.005 A 
HETATM   17  C   UNK N   1     170.193 150.603 155.476  0.00  0.00     0.018 A 
HETATM   18  C   UNK N   1     169.089 151.313 155.972  0.00  0.00     0.103 A 
HETATM   19  C   UNK N   1     167.492 153.093 155.353  0.00  0.00     0.349 A 
HETATM   20  O   UNK N   1     166.814 153.162 156.364  0.00  0.00    -0.244 OA
ENDBRANCH   9  10
ENDBRANCH   6   9
BRANCH   3  21
HETATM   21  C   UNK N   1     162.880 156.978 156.994  0.00  0.00    -0.052 A 
HETATM   22  C   UNK N   1     161.587 157.453 156.753  0.00  0.00     0.007 A 
HETATM   23  C   UNK N   1     160.528 157.038 157.567  0.00  0.00     0.001 A 
HETATM   24  C   UNK N   1     160.760 156.150 158.623  0.00  0.00     0.000 A 
HETATM   25  C   UNK N   1     162.051 155.674 158.866  0.00  0.00     0.001 A 
HETATM   26  C   UNK N   1     163.108 156.086 158.055  0.00  0.00     0.007 A 
ENDBRANCH   3  21
BRANCH   1  27
HETATM   27  C   UNK N   1     166.272 160.563 156.451  0.00  0.00     0.264 C 
HETATM   28  O   UNK N   1     167.060 160.555 157.387  0.00  0.00    -0.265 OA
BRANCH  27  29
HETATM   29  O   UNK N   1     165.861 161.735 155.910  0.00  0.00    -0.326 OA
HETATM   30  C   UNK N   1     164.994 162.581 156.564  0.00  0.00     0.213 C 
ENDBRANCH  27  29
ENDBRANCH   1  27
TORSDOF 5
ENDMDL
MODEL 6
REMARK VINA RESULT:      -6.8      3.924      8.531
REMARK  5 active torsions:
REMARK  status: ('A' for Active; 'I' for Inactive)
REMARK    1  A    between atoms: O_2  and  C_3 
REMARK    2  A    between atoms: C_5  and  C_3 
REMARK    3  A    between atoms: C_7  and  C_8 
REMARK       I    between atoms: N_15  and  C_16 
REMARK    4  A    between atoms: C_16  and  C_18 
REMARK    5  A    between atoms: C_18  and  N_19 
ROOT
HETATM    1  C   UNK N   1     170.587 150.578 152.052  0.00  0.00     0.104 C 
HETATM    2  C   UNK N   1     170.911 149.769 153.313  0.00  0.00     0.027 C 
HETATM    3  C   UNK N   1     170.778 150.608 154.587  0.00  0.00     0.037 C 
HETATM    4  C   UNK N   1     169.392 151.248 154.655  0.00  0.00     0.135 C 
HETATM    5  N   UNK N   1     169.118 151.947 153.420  0.00  0.00    -0.349 N 
HETATM    6  C   UNK N   1     168.798 153.269 153.418  0.00  0.00     0.239 C 
HETATM    7  O   UNK N   1     168.567 153.839 152.359  0.00  0.00    -0.271 OA
HETATM    8  C   UNK N   1     169.199 151.204 152.183  0.00  0.00     0.140 C 
ENDROOT
BRANCH   6   9
HETATM    9  C   UNK N   1     168.722 154.041 154.713  0.00  0.00     0.257 C 
BRANCH   9  10
HETATM   10  N   UNK N   1     167.387 154.580 154.914  0.00  0.00    -0.232 N 
HETATM   11  N   UNK N   1     167.003 155.798 154.542  0.00  0.00    -0.278 N 
HETATM   12  C   UNK N   1     165.692 155.891 154.858  0.00  0.00     0.130 A 
ATOM     13  HN  UNK N   1     167.582 156.516 154.107  1.00  0.00     0.189 HD
HETATM   14  C   UNK N   1     164.856 156.980 154.647  0.00  0.00     0.050 A 
HETATM   15  N   UNK N   1     165.237 154.758 155.422  0.00  0.00    -0.258 N 
HETATM   16  C   UNK N   1     163.515 156.846 155.045  0.00  0.00     0.005 A 
HETATM   17  C   UNK N   1     163.059 155.647 155.634  0.00  0.00     0.018 A 
HETATM   18  C   UNK N   1     163.955 154.583 155.821  0.00  0.00     0.103 A 
HETATM   19  C   UNK N   1     166.313 153.947 155.451  0.00  0.00     0.349 A 
HETATM   20  O   UNK N   1     166.318 152.805 155.880  0.00  0.00    -0.244 OA
ENDBRANCH   9  10
ENDBRANCH   6   9
BRANCH   3  21
HETATM   21  C   UNK N   1     170.977 149.720 155.772  0.00  0.00    -0.052 A 
HETATM   22  C   UNK N   1     171.151 148.344 155.593  0.00  0.00     0.007 A 
HETATM   23  C   UNK N   1     171.326 147.512 156.704  0.00  0.00     0.001 A 
HETATM   24  C   UNK N   1     171.326 148.053 157.994  0.00  0.00     0.000 A 
HETATM   25  C   UNK N   1     171.153 149.428 158.176  0.00  0.00     0.001 A 
HETATM   26  C   UNK N   1     170.979 150.259 157.069  0.00  0.00     0.007 A 
ENDBRANCH   3  21
BRANCH   1  27
HETATM   27  C   UNK N   1     170.623 149.716 150.820  0.00  0.00     0.264 C 
HETATM   28  O   UNK N   1     171.223 150.088 149.820  0.00  0.00    -0.265 OA
BRANCH  27  29
HETATM   29  O   UNK N   1     169.987 148.519 150.832  0.00  0.00    -0.326 OA
HETATM   30  C   UNK N   1     168.816 148.305 150.143  0.00  0.00     0.213 C 
ENDBRANCH  27  29
ENDBRANCH   1  27
TORSDOF 5
ENDMDL
MODEL 7
REMARK VINA RESULT:      -6.8      3.338      7.539
REMARK  5 active torsions:
REMARK  status: ('A' for Active; 'I' for Inactive)
REMARK    1  A    between atoms: O_2  and  C_3 
REMARK    2  A    between atoms: C_5  and  C_3 
REMARK    3  A    between atoms: C_7  and  C_8 
REMARK       I    between atoms: N_15  and  C_16 
REMARK    4  A    between atoms: C_16  and  C_18 
REMARK    5  A    between atoms: C_18  and  N_19 
ROOT
HETATM    1  C   UNK N   1     166.995 154.832 155.718  0.00  0.00     0.104 C 
HETATM    2  C   UNK N   1     167.413 156.231 156.185  0.00  0.00     0.027 C 
HETATM    3  C   UNK N   1     166.232 157.204 156.222  0.00  0.00     0.037 C 
HETATM    4  C   UNK N   1     165.100 156.628 157.073  0.00  0.00     0.135 C 
HETATM    5  N   UNK N   1     164.788 155.289 156.625  0.00  0.00    -0.349 N 
HETATM    6  C   UNK N   1     163.528 154.954 156.237  0.00  0.00     0.239 C 
HETATM    7  O   UNK N   1     163.288 153.813 155.864  0.00  0.00    -0.271 OA
HETATM    8  C   UNK N   1     165.855 154.314 156.593  0.00  0.00     0.140 C 
ENDROOT
BRANCH   6   9
HETATM    9  C   UNK N   1     162.420 155.979 156.265  0.00  0.00     0.257 C 
BRANCH   9  10
HETATM   10  N   UNK N   1     161.674 155.898 157.510  0.00  0.00    -0.232 N 
HETATM   11  N   UNK N   1     162.088 155.248 158.594  0.00  0.00    -0.278 N 
HETATM   12  C   UNK N   1     161.145 155.455 159.539  0.00  0.00     0.130 A 
ATOM     13  HN  UNK N   1     162.945 154.704 158.692  1.00  0.00     0.189 HD
HETATM   14  C   UNK N   1     161.149 154.979 160.844  0.00  0.00     0.050 A 
HETATM   15  N   UNK N   1     160.141 156.222 159.078  0.00  0.00    -0.258 N 
HETATM   16  C   UNK N   1     160.062 155.334 161.661  0.00  0.00     0.005 A 
HETATM   17  C   UNK N   1     159.020 156.141 161.155  0.00  0.00     0.018 A 
HETATM   18  C   UNK N   1     159.075 156.590 159.826  0.00  0.00     0.103 A 
HETATM   19  C   UNK N   1     160.489 156.490 157.803  0.00  0.00     0.349 A 
HETATM   20  O   UNK N   1     159.842 157.178 157.031  0.00  0.00    -0.244 OA
ENDBRANCH   9  10
ENDBRANCH   6   9
BRANCH   3  21
HETATM   21  C   UNK N   1     166.691 158.498 156.812  0.00  0.00    -0.052 A 
HETATM   22  C   UNK N   1     166.162 159.705 156.345  0.00  0.00     0.007 A 
HETATM   23  C   UNK N   1     166.600 160.916 156.889  0.00  0.00     0.001 A 
HETATM   24  C   UNK N   1     167.568 160.923 157.900  0.00  0.00     0.000 A 
HETATM   25  C   UNK N   1     168.098 159.719 158.369  0.00  0.00     0.001 A 
HETATM   26  C   UNK N   1     167.661 158.509 157.828  0.00  0.00     0.007 A 
ENDBRANCH   3  21
BRANCH   1  27
HETATM   27  C   UNK N   1     168.145 153.864 155.784  0.00  0.00     0.264 C 
HETATM   28  O   UNK N   1     168.361 153.227 156.808  0.00  0.00    -0.265 OA
BRANCH  27  29
HETATM   29  O   UNK N   1     168.936 153.701 154.696  0.00  0.00    -0.326 OA
HETATM   30  C   UNK N   1     168.598 152.857 153.663  0.00  0.00     0.213 C 
ENDBRANCH  27  29
ENDBRANCH   1  27
TORSDOF 5
ENDMDL
MODEL 8
REMARK VINA RESULT:      -6.6      2.705      8.316
REMARK  5 active torsions:
REMARK  status: ('A' for Active; 'I' for Inactive)
REMARK    1  A    between atoms: O_2  and  C_3 
REMARK    2  A    between atoms: C_5  and  C_3 
REMARK    3  A    between atoms: C_7  and  C_8 
REMARK       I    between atoms: N_15  and  C_16 
REMARK    4  A    between atoms: C_16  and  C_18 
REMARK    5  A    between atoms: C_18  and  N_19 
ROOT
HETATM    1  C   UNK N   1     167.632 154.744 151.511  0.00  0.00     0.104 C 
HETATM    2  C   UNK N   1     168.206 153.433 152.059  0.00  0.00     0.027 C 
HETATM    3  C   UNK N   1     168.536 153.526 153.551  0.00  0.00     0.037 C 
HETATM    4  C   UNK N   1     167.308 153.988 154.336  0.00  0.00     0.135 C 
HETATM    5  N   UNK N   1     166.777 155.193 153.741  0.00  0.00    -0.349 N 
HETATM    6  C   UNK N   1     166.622 156.329 154.474  0.00  0.00     0.239 C 
HETATM    7  O   UNK N   1     166.167 157.336 153.948  0.00  0.00    -0.271 OA
HETATM    8  C   UNK N   1     166.418 155.163 152.340  0.00  0.00     0.140 C 
ENDROOT
BRANCH   6   9
HETATM    9  C   UNK N   1     167.004 156.356 155.934  0.00  0.00     0.257 C 
BRANCH   9  10
HETATM   10  N   UNK N   1     165.832 156.193 156.777  0.00  0.00    -0.232 N 
HETATM   11  N   UNK N   1     164.762 156.983 156.740  0.00  0.00    -0.278 N 
HETATM   12  C   UNK N   1     163.886 156.470 157.632  0.00  0.00     0.130 A 
ATOM     13  HN  UNK N   1     164.632 157.810 156.157  1.00  0.00     0.189 HD
HETATM   14  C   UNK N   1     162.619 156.954 157.932  0.00  0.00     0.050 A 
HETATM   15  N   UNK N   1     164.375 155.371 158.232  0.00  0.00    -0.258 N 
HETATM   16  C   UNK N   1     161.871 156.246 158.888  0.00  0.00     0.005 A 
HETATM   17  C   UNK N   1     162.406 155.094 159.506  0.00  0.00     0.018 A 
HETATM   18  C   UNK N   1     163.693 154.657 159.158  0.00  0.00     0.103 A 
HETATM   19  C   UNK N   1     165.597 155.212 157.685  0.00  0.00     0.349 A 
HETATM   20  O   UNK N   1     166.372 154.310 157.954  0.00  0.00    -0.244 OA
ENDBRANCH   9  10
ENDBRANCH   6   9
BRANCH   3  21
HETATM   21  C   UNK N   1     168.960 152.178 154.036  0.00  0.00    -0.052 A 
HETATM   22  C   UNK N   1     170.183 151.639 153.623  0.00  0.00     0.007 A 
HETATM   23  C   UNK N   1     170.574 150.373 154.069  0.00  0.00     0.001 A 
HETATM   24  C   UNK N   1     169.744 149.642 154.926  0.00  0.00     0.000 A 
HETATM   25  C   UNK N   1     168.522 150.177 155.341  0.00  0.00     0.001 A 
HETATM   26  C   UNK N   1     168.130 151.441 154.898  0.00  0.00     0.007 A 
ENDBRANCH   3  21
BRANCH   1  27
HETATM   27  C   UNK N   1     167.219 154.605 150.071  0.00  0.00     0.264 C 
HETATM   28  O   UNK N   1     167.936 155.035 149.177  0.00  0.00    -0.265 OA
BRANCH  27  29
HETATM   29  O   UNK N   1     166.046 153.995 149.776  0.00  0.00    -0.326 OA
HETATM   30  C   UNK N   1     165.661 153.733 148.481  0.00  0.00     0.213 C 
ENDBRANCH  27  29
ENDBRANCH   1  27
TORSDOF 5
ENDMDL
MODEL 9
REMARK VINA RESULT:      -6.5      3.870      6.318
REMARK  5 active torsions:
REMARK  status: ('A' for Active; 'I' for Inactive)
REMARK    1  A    between atoms: O_2  and  C_3 
REMARK    2  A    between atoms: C_5  and  C_3 
REMARK    3  A    between atoms: C_7  and  C_8 
REMARK       I    between atoms: N_15  and  C_16 
REMARK    4  A    between atoms: C_16  and  C_18 
REMARK    5  A    between atoms: C_18  and  N_19 
ROOT
HETATM    1  C   UNK N   1     160.011 156.185 158.018  0.00  0.00     0.104 C 
HETATM    2  C   UNK N   1     160.296 155.976 159.509  0.00  0.00     0.027 C 
HETATM    3  C   UNK N   1     161.502 155.064 159.744  0.00  0.00     0.037 C 
HETATM    4  C   UNK N   1     162.723 155.598 158.995  0.00  0.00     0.135 C 
HETATM    5  N   UNK N   1     162.379 155.830 157.610  0.00  0.00    -0.349 N 
HETATM    6  C   UNK N   1     163.079 155.238 156.604  0.00  0.00     0.239 C 
HETATM    7  O   UNK N   1     162.770 155.452 155.439  0.00  0.00    -0.271 OA
HETATM    8  C   UNK N   1     161.266 156.706 157.320  0.00  0.00     0.140 C 
ENDROOT
BRANCH   6   9
HETATM    9  C   UNK N   1     164.236 154.319 156.914  0.00  0.00     0.257 C 
BRANCH   9  10
HETATM   10  N   UNK N   1     165.406 154.682 156.132  0.00  0.00    -0.232 N 
HETATM   11  N   UNK N   1     165.716 155.925 155.775  0.00  0.00    -0.278 N 
HETATM   12  C   UNK N   1     166.890 155.843 155.111  0.00  0.00     0.130 A 
ATOM     13  HN  UNK N   1     165.177 156.770 155.965  1.00  0.00     0.189 HD
HETATM   14  C   UNK N   1     167.613 156.892 154.557  0.00  0.00     0.050 A 
HETATM   15  N   UNK N   1     167.331 154.575 155.040  0.00  0.00    -0.258 N 
HETATM   16  C   UNK N   1     168.824 156.571 153.920  0.00  0.00     0.005 A 
HETATM   17  C   UNK N   1     169.268 155.232 153.858  0.00  0.00     0.018 A 
HETATM   18  C   UNK N   1     168.491 154.217 154.438  0.00  0.00     0.103 A 
HETATM   19  C   UNK N   1     166.388 153.859 155.684  0.00  0.00     0.349 A 
HETATM   20  O   UNK N   1     166.419 152.652 155.855  0.00  0.00    -0.244 OA
ENDBRANCH   9  10
ENDBRANCH   6   9
BRANCH   3  21
HETATM   21  C   UNK N   1     161.796 155.019 161.208  0.00  0.00    -0.052 A 
HETATM   22  C   UNK N   1     160.747 155.050 162.133  0.00  0.00     0.007 A 
HETATM   23  C   UNK N   1     161.023 155.020 163.503  0.00  0.00     0.001 A 
HETATM   24  C   UNK N   1     162.347 154.959 163.952  0.00  0.00     0.000 A 
HETATM   25  C   UNK N   1     163.397 154.927 163.031  0.00  0.00     0.001 A 
HETATM   26  C   UNK N   1     163.124 154.956 161.663  0.00  0.00     0.007 A 
ENDBRANCH   3  21
BRANCH   1  27
HETATM   27  C   UNK N   1     158.888 157.162 157.804  0.00  0.00     0.264 C 
HETATM   28  O   UNK N   1     158.841 157.839 156.784  0.00  0.00    -0.265 OA
BRANCH  27  29
HETATM   29  O   UNK N   1     157.926 157.283 158.751  0.00  0.00    -0.326 OA
HETATM   30  C   UNK N   1     156.599 157.038 158.484  0.00  0.00     0.213 C 
ENDBRANCH  27  29
ENDBRANCH   1  27
TORSDOF 5
ENDMDL
