MODEL 1
REMARK VINA RESULT:      -5.6      0.000      0.000
REMARK  5 active torsions:
REMARK  status: ('A' for Active; 'I' for Inactive)
REMARK    1  A    between atoms: C_3  and  C_4 
REMARK    2  A    between atoms: C_4  and  N_5 
REMARK    3  A    between atoms: N_5  and  C_6 
REMARK    4  A    between atoms: N_9  and  C_10 
REMARK    5  A    between atoms: C_10  and  C_11 
ROOT
HETATM    1  C   UNK N   1     159.333 146.771 161.660  0.00  0.00     0.117 A 
HETATM    2  C   UNK N   1     159.581 145.482 161.215  0.00  0.00     0.068 A 
HETATM    3  C   UNK N   1     158.505 145.196 160.387  0.00  0.00     0.114 A 
HETATM    4  N   UNK N   1     157.696 146.275 160.364  0.00  0.00    -0.297 N 
HETATM    5  N   UNK N   1     158.184 147.230 161.135  0.00  0.00    -0.284 N 
ATOM      6  HN  UNK N   1     157.768 148.145 161.302  1.00  0.00     0.188 HD
ENDROOT
BRANCH   1   7
HETATM    7  N   UNK N   1     160.153 147.525 162.538  0.00  0.00    -0.370 N 
HETATM    8  H   UNK N   1     160.280 148.488 162.375  0.00  0.00     0.161 HD
BRANCH   7   9
HETATM    9  C   UNK N   1     160.804 146.905 163.667  0.00  0.00     0.179 C 
BRANCH   9  10
HETATM   10  C   UNK N   1     159.910 146.899 164.861  0.00  0.00     0.044 A 
HETATM   11  C   UNK N   1     159.264 145.800 165.383  0.00  0.00     0.047 A 
HETATM   12  C   UNK N   1     158.530 146.308 166.443  0.00  0.00     0.109 A 
HETATM   13  N   UNK N   1     158.741 147.639 166.518  0.00  0.00    -0.312 N 
HETATM   14  N   UNK N   1     159.575 147.997 165.555  0.00  0.00    -0.304 N 
HETATM   15  H   UNK N   1     158.341 148.244 167.182  0.00  0.00     0.186 HD
ATOM     16  HN  UNK N   1     159.906 148.944 165.373  1.00  0.00     0.186 HD
ENDBRANCH   9  10
ENDBRANCH   7   9
ENDBRANCH   1   7
BRANCH   4  17
HETATM   17  C   UNK N   1     156.435 146.376 159.642  0.00  0.00     0.186 C 
BRANCH  17  18
HETATM   18  C   UNK N   1     156.550 147.324 158.494  0.00  0.00    -0.039 A 
HETATM   19  C   UNK N   1     155.997 148.607 158.586  0.00  0.00     0.009 A 
HETATM   20  C   UNK N   1     156.119 149.502 157.519  0.00  0.00     0.001 A 
HETATM   21  C   UNK N   1     156.799 149.118 156.358  0.00  0.00     0.000 A 
HETATM   22  C   UNK N   1     157.358 147.840 156.266  0.00  0.00     0.001 A 
HETATM   23  C   UNK N   1     157.235 146.943 157.334  0.00  0.00     0.009 A 
ENDBRANCH  17  18
ENDBRANCH   4  17
TORSDOF 5
ENDMDL
MODEL 2
REMARK VINA RESULT:      -5.6      2.451      3.659
REMARK  5 active torsions:
REMARK  status: ('A' for Active; 'I' for Inactive)
REMARK    1  A    between atoms: C_3  and  C_4 
REMARK    2  A    between atoms: C_4  and  N_5 
REMARK    3  A    between atoms: N_5  and  C_6 
REMARK    4  A    between atoms: N_9  and  C_10 
REMARK    5  A    between atoms: C_10  and  C_11 
ROOT
HETATM    1  C   UNK N   1     158.187 147.078 159.466  0.00  0.00     0.117 A 
HETATM    2  C   UNK N   1     158.243 145.853 158.821  0.00  0.00     0.068 A 
HETATM    3  C   UNK N   1     157.991 146.159 157.491  0.00  0.00     0.114 A 
HETATM    4  N   UNK N   1     157.808 147.491 157.396  0.00  0.00    -0.297 N 
HETATM    5  N   UNK N   1     157.919 148.055 158.585  0.00  0.00    -0.284 N 
ATOM      6  HN  UNK N   1     157.820 149.048 158.796  1.00  0.00     0.188 HD
ENDROOT
BRANCH   1   7
HETATM    7  N   UNK N   1     158.384 147.301 160.853  0.00  0.00    -0.370 N 
HETATM    8  H   UNK N   1     158.138 148.172 161.242  0.00  0.00     0.161 HD
BRANCH   7   9
HETATM    9  C   UNK N   1     158.936 146.274 161.704  0.00  0.00     0.179 C 
BRANCH   9  10
HETATM   10  C   UNK N   1     160.383 146.523 161.970  0.00  0.00     0.044 A 
HETATM   11  C   UNK N   1     161.077 146.133 163.094  0.00  0.00     0.047 A 
HETATM   12  C   UNK N   1     162.355 146.630 162.893  0.00  0.00     0.109 A 
HETATM   13  N   UNK N   1     162.387 147.281 161.711  0.00  0.00    -0.312 N 
HETATM   14  N   UNK N   1     161.188 147.220 161.154  0.00  0.00    -0.304 N 
HETATM   15  H   UNK N   1     163.173 147.729 161.326  0.00  0.00     0.186 HD
ATOM     16  HN  UNK N   1     160.923 147.631 160.259  1.00  0.00     0.186 HD
ENDBRANCH   9  10
ENDBRANCH   7   9
ENDBRANCH   1   7
BRANCH   4  17
HETATM   17  C   UNK N   1     157.485 148.219 156.176  0.00  0.00     0.186 C 
BRANCH  17  18
HETATM   18  C   UNK N   1     156.028 148.120 155.863  0.00  0.00    -0.039 A 
HETATM   19  C   UNK N   1     155.582 147.246 154.864  0.00  0.00     0.009 A 
HETATM   20  C   UNK N   1     154.217 147.139 154.582  0.00  0.00     0.001 A 
HETATM   21  C   UNK N   1     153.293 147.902 155.303  0.00  0.00     0.000 A 
HETATM   22  C   UNK N   1     153.733 148.771 156.306  0.00  0.00     0.001 A 
HETATM   23  C   UNK N   1     155.100 148.879 156.587  0.00  0.00     0.009 A 
ENDBRANCH  17  18
ENDBRANCH   4  17
TORSDOF 5
ENDMDL
MODEL 3
REMARK VINA RESULT:      -5.6      2.369      4.149
REMARK  5 active torsions:
REMARK  status: ('A' for Active; 'I' for Inactive)
REMARK    1  A    between atoms: C_3  and  C_4 
REMARK    2  A    between atoms: C_4  and  N_5 
REMARK    3  A    between atoms: N_5  and  C_6 
REMARK    4  A    between atoms: N_9  and  C_10 
REMARK    5  A    between atoms: C_10  and  C_11 
ROOT
HETATM    1  C   UNK N   1     154.863 147.330 160.639  0.00  0.00     0.117 A 
HETATM    2  C   UNK N   1     153.496 147.548 160.701  0.00  0.00     0.068 A 
HETATM    3  C   UNK N   1     153.241 148.406 159.641  0.00  0.00     0.114 A 
HETATM    4  N   UNK N   1     154.408 148.652 159.012  0.00  0.00    -0.297 N 
HETATM    5  N   UNK N   1     155.395 148.012 159.612  0.00  0.00    -0.284 N 
ATOM      6  HN  UNK N   1     156.379 148.030 159.344  1.00  0.00     0.188 HD
ENDROOT
BRANCH   1   7
HETATM    7  N   UNK N   1     155.619 146.511 161.516  0.00  0.00    -0.370 N 
HETATM    8  H   UNK N   1     155.462 146.568 162.487  0.00  0.00     0.161 HD
BRANCH   7   9
HETATM    9  C   UNK N   1     156.614 145.596 161.011  0.00  0.00     0.179 C 
BRANCH   9  10
HETATM   10  C   UNK N   1     157.983 146.005 161.442  0.00  0.00     0.044 A 
HETATM   11  C   UNK N   1     158.932 145.182 162.007  0.00  0.00     0.047 A 
HETATM   12  C   UNK N   1     160.000 146.026 162.268  0.00  0.00     0.109 A 
HETATM   13  N   UNK N   1     159.672 147.275 161.878  0.00  0.00    -0.312 N 
HETATM   14  N   UNK N   1     158.446 147.262 161.380  0.00  0.00    -0.304 N 
HETATM   15  H   UNK N   1     160.251 148.067 161.950  0.00  0.00     0.186 HD
ATOM     16  HN  UNK N   1     157.941 148.069 161.014  1.00  0.00     0.186 HD
ENDBRANCH   9  10
ENDBRANCH   7   9
ENDBRANCH   1   7
BRANCH   4  17
HETATM   17  C   UNK N   1     154.586 149.534 157.866  0.00  0.00     0.186 C 
BRANCH  17  18
HETATM   18  C   UNK N   1     155.259 148.820 156.740  0.00  0.00    -0.039 A 
HETATM   19  C   UNK N   1     156.603 149.078 156.449  0.00  0.00     0.009 A 
HETATM   20  C   UNK N   1     157.239 148.398 155.406  0.00  0.00     0.001 A 
HETATM   21  C   UNK N   1     156.533 147.453 154.655  0.00  0.00     0.000 A 
HETATM   22  C   UNK N   1     155.192 147.187 154.947  0.00  0.00     0.001 A 
HETATM   23  C   UNK N   1     154.555 147.869 155.990  0.00  0.00     0.009 A 
ENDBRANCH  17  18
ENDBRANCH   4  17
TORSDOF 5
ENDMDL
MODEL 4
REMARK VINA RESULT:      -5.6      1.883      2.434
REMARK  5 active torsions:
REMARK  status: ('A' for Active; 'I' for Inactive)
REMARK    1  A    between atoms: C_3  and  C_4 
REMARK    2  A    between atoms: C_4  and  N_5 
REMARK    3  A    between atoms: N_5  and  C_6 
REMARK    4  A    between atoms: N_9  and  C_10 
REMARK    5  A    between atoms: C_10  and  C_11 
ROOT
HETATM    1  C   UNK N   1     159.146 146.754 161.667  0.00  0.00     0.117 A 
HETATM    2  C   UNK N   1     159.107 145.388 161.437  0.00  0.00     0.068 A 
HETATM    3  C   UNK N   1     157.970 145.207 160.664  0.00  0.00     0.114 A 
HETATM    4  N   UNK N   1     157.402 146.413 160.465  0.00  0.00    -0.297 N 
HETATM    5  N   UNK N   1     158.102 147.354 161.072  0.00  0.00    -0.284 N 
ATOM      6  HN  UNK N   1     157.890 148.352 161.087  1.00  0.00     0.188 HD
ENDROOT
BRANCH   1   7
HETATM    7  N   UNK N   1     160.132 147.448 162.413  0.00  0.00    -0.370 N 
HETATM    8  H   UNK N   1     159.865 148.211 162.977  0.00  0.00     0.161 HD
BRANCH   7   9
HETATM    9  C   UNK N   1     161.521 147.057 162.361  0.00  0.00     0.179 C 
BRANCH   9  10
HETATM   10  C   UNK N   1     162.200 147.329 163.662  0.00  0.00     0.044 A 
HETATM   11  C   UNK N   1     161.755 148.187 164.643  0.00  0.00     0.047 A 
HETATM   12  C   UNK N   1     162.739 148.129 165.617  0.00  0.00     0.109 A 
HETATM   13  N   UNK N   1     163.705 147.282 165.207  0.00  0.00    -0.312 N 
HETATM   14  N   UNK N   1     163.380 146.800 164.019  0.00  0.00    -0.304 N 
HETATM   15  H   UNK N   1     164.520 147.058 165.711  0.00  0.00     0.186 HD
ATOM     16  HN  UNK N   1     163.932 146.141 163.469  1.00  0.00     0.186 HD
ENDBRANCH   9  10
ENDBRANCH   7   9
ENDBRANCH   1   7
BRANCH   4  17
HETATM   17  C   UNK N   1     156.167 146.661 159.733  0.00  0.00     0.186 C 
BRANCH  17  18
HETATM   18  C   UNK N   1     156.417 147.516 158.535  0.00  0.00    -0.039 A 
HETATM   19  C   UNK N   1     157.161 147.018 157.459  0.00  0.00     0.009 A 
HETATM   20  C   UNK N   1     157.381 147.812 156.330  0.00  0.00     0.001 A 
HETATM   21  C   UNK N   1     156.852 149.105 156.271  0.00  0.00     0.000 A 
HETATM   22  C   UNK N   1     156.102 149.604 157.340  0.00  0.00     0.001 A 
HETATM   23  C   UNK N   1     155.883 148.810 158.472  0.00  0.00     0.009 A 
ENDBRANCH  17  18
ENDBRANCH   4  17
TORSDOF 5
ENDMDL
MODEL 5
REMARK VINA RESULT:      -5.4     13.100     15.126
REMARK  5 active torsions:
REMARK  status: ('A' for Active; 'I' for Inactive)
REMARK    1  A    between atoms: C_3  and  C_4 
REMARK    2  A    between atoms: C_4  and  N_5 
REMARK    3  A    between atoms: N_5  and  C_6 
REMARK    4  A    between atoms: N_9  and  C_10 
REMARK    5  A    between atoms: C_10  and  C_11 
ROOT
HETATM    1  C   UNK N   1     168.352 150.471 154.046  0.00  0.00     0.117 A 
HETATM    2  C   UNK N   1     168.256 150.888 155.364  0.00  0.00     0.068 A 
HETATM    3  C   UNK N   1     168.712 152.197 155.341  0.00  0.00     0.114 A 
HETATM    4  N   UNK N   1     169.044 152.502 154.070  0.00  0.00    -0.297 N 
HETATM    5  N   UNK N   1     168.836 151.463 153.281  0.00  0.00    -0.284 N 
ATOM      6  HN  UNK N   1     169.009 151.422 152.277  1.00  0.00     0.188 HD
ENDROOT
BRANCH   1   7
HETATM    7  N   UNK N   1     167.998 149.192 153.546  0.00  0.00    -0.370 N 
HETATM    8  H   UNK N   1     167.057 148.906 153.573  0.00  0.00     0.161 HD
BRANCH   7   9
HETATM    9  C   UNK N   1     168.995 148.304 152.997  0.00  0.00     0.179 C 
BRANCH   9  10
HETATM   10  C   UNK N   1     169.102 148.473 151.518  0.00  0.00     0.044 A 
HETATM   11  C   UNK N   1     168.065 148.759 150.659  0.00  0.00     0.047 A 
HETATM   12  C   UNK N   1     168.655 148.769 149.405  0.00  0.00     0.109 A 
HETATM   13  N   UNK N   1     169.968 148.493 149.541  0.00  0.00    -0.312 N 
HETATM   14  N   UNK N   1     170.238 148.309 150.823  0.00  0.00    -0.304 N 
HETATM   15  H   UNK N   1     170.620 148.439 148.806  0.00  0.00     0.186 HD
ATOM     16  HN  UNK N   1     171.152 148.082 151.215  1.00  0.00     0.186 HD
ENDBRANCH   9  10
ENDBRANCH   7   9
ENDBRANCH   1   7
BRANCH   4  17
HETATM   17  C   UNK N   1     169.600 153.770 153.617  0.00  0.00     0.186 C 
BRANCH  17  18
HETATM   18  C   UNK N   1     168.571 154.851 153.654  0.00  0.00    -0.039 A 
HETATM   19  C   UNK N   1     167.421 154.752 152.862  0.00  0.00     0.009 A 
HETATM   20  C   UNK N   1     166.448 155.755 152.909  0.00  0.00     0.001 A 
HETATM   21  C   UNK N   1     166.620 156.857 153.752  0.00  0.00     0.000 A 
HETATM   22  C   UNK N   1     167.764 156.956 154.550  0.00  0.00     0.001 A 
HETATM   23  C   UNK N   1     168.738 155.953 154.503  0.00  0.00     0.009 A 
ENDBRANCH  17  18
ENDBRANCH   4  17
TORSDOF 5
ENDMDL
MODEL 6
REMARK VINA RESULT:      -5.3     13.805     15.512
REMARK  5 active torsions:
REMARK  status: ('A' for Active; 'I' for Inactive)
REMARK    1  A    between atoms: C_3  and  C_4 
REMARK    2  A    between atoms: C_4  and  N_5 
REMARK    3  A    between atoms: N_5  and  C_6 
REMARK    4  A    between atoms: N_9  and  C_10 
REMARK    5  A    between atoms: C_10  and  C_11 
ROOT
HETATM    1  C   UNK N   1     168.620 152.777 153.453  0.00  0.00     0.117 A 
HETATM    2  C   UNK N   1     168.046 152.495 154.682  0.00  0.00     0.068 A 
HETATM    3  C   UNK N   1     168.221 153.661 155.413  0.00  0.00     0.114 A 
HETATM    4  N   UNK N   1     168.857 154.555 154.630  0.00  0.00    -0.297 N 
HETATM    5  N   UNK N   1     169.108 154.028 153.445  0.00  0.00    -0.284 N 
ATOM      6  HN  UNK N   1     169.584 154.485 152.668  1.00  0.00     0.188 HD
ENDROOT
BRANCH   1   7
HETATM    7  N   UNK N   1     168.695 151.896 152.344  0.00  0.00    -0.370 N 
HETATM    8  H   UNK N   1     168.269 152.151 151.493  0.00  0.00     0.161 HD
BRANCH   7   9
HETATM    9  C   UNK N   1     169.385 150.631 152.440  0.00  0.00     0.179 C 
BRANCH   9  10
HETATM   10  C   UNK N   1     169.001 149.728 151.316  0.00  0.00     0.044 A 
HETATM   11  C   UNK N   1     169.633 149.640 150.096  0.00  0.00     0.047 A 
HETATM   12  C   UNK N   1     168.886 148.709 149.392  0.00  0.00     0.109 A 
HETATM   13  N   UNK N   1     167.869 148.289 150.173  0.00  0.00    -0.312 N 
HETATM   14  N   UNK N   1     167.936 148.911 151.339  0.00  0.00    -0.304 N 
HETATM   15  H   UNK N   1     167.188 147.628 149.917  0.00  0.00     0.186 HD
ATOM     16  HN  UNK N   1     167.291 148.791 152.119  1.00  0.00     0.186 HD
ENDBRANCH   9  10
ENDBRANCH   7   9
ENDBRANCH   1   7
BRANCH   4  17
HETATM   17  C   UNK N   1     169.264 155.896 155.028  0.00  0.00     0.186 C 
BRANCH  17  18
HETATM   18  C   UNK N   1     168.096 156.826 155.049  0.00  0.00    -0.039 A 
HETATM   19  C   UNK N   1     167.529 157.268 153.848  0.00  0.00     0.009 A 
HETATM   20  C   UNK N   1     166.425 158.125 153.866  0.00  0.00     0.001 A 
HETATM   21  C   UNK N   1     165.880 158.538 155.086  0.00  0.00     0.000 A 
HETATM   22  C   UNK N   1     166.439 158.093 156.288  0.00  0.00     0.001 A 
HETATM   23  C   UNK N   1     167.546 157.236 156.269  0.00  0.00     0.009 A 
ENDBRANCH  17  18
ENDBRANCH   4  17
TORSDOF 5
ENDMDL
MODEL 7
REMARK VINA RESULT:      -5.3      3.473      7.598
REMARK  5 active torsions:
REMARK  status: ('A' for Active; 'I' for Inactive)
REMARK    1  A    between atoms: C_3  and  C_4 
REMARK    2  A    between atoms: C_4  and  N_5 
REMARK    3  A    between atoms: N_5  and  C_6 
REMARK    4  A    between atoms: N_9  and  C_10 
REMARK    5  A    between atoms: C_10  and  C_11 
ROOT
HETATM    1  C   UNK N   1     160.925 147.110 163.609  0.00  0.00     0.117 A 
HETATM    2  C   UNK N   1     162.183 146.874 163.078  0.00  0.00     0.068 A 
HETATM    3  C   UNK N   1     163.049 147.485 163.974  0.00  0.00     0.114 A 
HETATM    4  N   UNK N   1     162.311 148.033 164.961  0.00  0.00    -0.297 N 
HETATM    5  N   UNK N   1     161.026 147.817 164.747  0.00  0.00    -0.284 N 
ATOM      6  HN  UNK N   1     160.254 148.128 165.335  1.00  0.00     0.188 HD
ENDROOT
BRANCH   1   7
HETATM    7  N   UNK N   1     159.691 146.679 163.058  0.00  0.00    -0.370 N 
HETATM    8  H   UNK N   1     158.847 146.970 163.474  0.00  0.00     0.161 HD
BRANCH   7   9
HETATM    9  C   UNK N   1     159.651 145.823 161.896  0.00  0.00     0.179 C 
BRANCH   9  10
HETATM   10  C   UNK N   1     158.912 146.477 160.777  0.00  0.00     0.044 A 
HETATM   11  C   UNK N   1     159.208 146.363 159.436  0.00  0.00     0.047 A 
HETATM   12  C   UNK N   1     158.279 147.180 158.813  0.00  0.00     0.109 A 
HETATM   13  N   UNK N   1     157.493 147.741 159.755  0.00  0.00    -0.312 N 
HETATM   14  N   UNK N   1     157.881 147.318 160.947  0.00  0.00    -0.304 N 
HETATM   15  H   UNK N   1     156.751 148.364 159.583  0.00  0.00     0.186 HD
ATOM     16  HN  UNK N   1     157.467 147.585 161.840  1.00  0.00     0.186 HD
ENDBRANCH   9  10
ENDBRANCH   7   9
ENDBRANCH   1   7
BRANCH   4  17
HETATM   17  C   UNK N   1     162.832 148.799 166.085  0.00  0.00     0.186 C 
BRANCH  17  18
HETATM   18  C   UNK N   1     162.754 150.266 165.815  0.00  0.00    -0.039 A 
HETATM   19  C   UNK N   1     161.626 150.994 166.211  0.00  0.00     0.009 A 
HETATM   20  C   UNK N   1     161.559 152.370 165.974  0.00  0.00     0.001 A 
HETATM   21  C   UNK N   1     162.624 153.024 165.346  0.00  0.00     0.000 A 
HETATM   22  C   UNK N   1     163.756 152.302 164.955  0.00  0.00     0.001 A 
HETATM   23  C   UNK N   1     163.822 150.923 165.191  0.00  0.00     0.009 A 
ENDBRANCH  17  18
ENDBRANCH   4  17
TORSDOF 5
ENDMDL
MODEL 8
REMARK VINA RESULT:      -5.3      2.071      3.290
REMARK  5 active torsions:
REMARK  status: ('A' for Active; 'I' for Inactive)
REMARK    1  A    between atoms: C_3  and  C_4 
REMARK    2  A    between atoms: C_4  and  N_5 
REMARK    3  A    between atoms: N_5  and  C_6 
REMARK    4  A    between atoms: N_9  and  C_10 
REMARK    5  A    between atoms: C_10  and  C_11 
ROOT
HETATM    1  C   UNK N   1     158.649 144.677 158.796  0.00  0.00     0.117 A 
HETATM    2  C   UNK N   1     157.493 143.992 158.457  0.00  0.00     0.068 A 
HETATM    3  C   UNK N   1     157.016 144.663 157.342  0.00  0.00     0.114 A 
HETATM    4  N   UNK N   1     157.865 145.673 157.065  0.00  0.00    -0.297 N 
HETATM    5  N   UNK N   1     158.853 145.693 157.943  0.00  0.00    -0.284 N 
ATOM      6  HN  UNK N   1     159.626 146.357 157.967  1.00  0.00     0.188 HD
ENDROOT
BRANCH   1   7
HETATM    7  N   UNK N   1     159.514 144.373 159.878  0.00  0.00    -0.370 N 
HETATM    8  H   UNK N   1     160.443 144.101 159.694  0.00  0.00     0.161 HD
BRANCH   7   9
HETATM    9  C   UNK N   1     159.057 144.455 161.245  0.00  0.00     0.179 C 
BRANCH   9  10
HETATM   10  C   UNK N   1     159.625 145.656 161.925  0.00  0.00     0.044 A 
HETATM   11  C   UNK N   1     160.645 145.655 162.850  0.00  0.00     0.047 A 
HETATM   12  C   UNK N   1     160.775 146.986 163.215  0.00  0.00     0.109 A 
HETATM   13  N   UNK N   1     159.865 147.713 162.534  0.00  0.00    -0.312 N 
HETATM   14  N   UNK N   1     159.164 146.904 161.755  0.00  0.00    -0.304 N 
HETATM   15  H   UNK N   1     159.742 148.686 162.604  0.00  0.00     0.186 HD
ATOM     16  HN  UNK N   1     158.405 147.183 161.133  1.00  0.00     0.186 HD
ENDBRANCH   9  10
ENDBRANCH   7   9
ENDBRANCH   1   7
BRANCH   4  17
HETATM   17  C   UNK N   1     157.710 146.645 155.991  0.00  0.00     0.186 C 
BRANCH  17  18
HETATM   18  C   UNK N   1     156.691 147.678 156.346  0.00  0.00    -0.039 A 
HETATM   19  C   UNK N   1     157.021 148.714 157.227  0.00  0.00     0.009 A 
HETATM   20  C   UNK N   1     156.074 149.691 157.546  0.00  0.00     0.001 A 
HETATM   21  C   UNK N   1     154.796 149.638 156.981  0.00  0.00     0.000 A 
HETATM   22  C   UNK N   1     154.465 148.608 156.095  0.00  0.00     0.001 A 
HETATM   23  C   UNK N   1     155.413 147.629 155.776  0.00  0.00     0.009 A 
ENDBRANCH  17  18
ENDBRANCH   4  17
TORSDOF 5
ENDMDL
MODEL 9
REMARK VINA RESULT:      -5.3      2.530      3.719
REMARK  5 active torsions:
REMARK  status: ('A' for Active; 'I' for Inactive)
REMARK    1  A    between atoms: C_3  and  C_4 
REMARK    2  A    between atoms: C_4  and  N_5 
REMARK    3  A    between atoms: N_5  and  C_6 
REMARK    4  A    between atoms: N_9  and  C_10 
REMARK    5  A    between atoms: C_10  and  C_11 
ROOT
HETATM    1  C   UNK N   1     155.990 146.412 161.182  0.00  0.00     0.117 A 
HETATM    2  C   UNK N   1     154.686 146.264 161.626  0.00  0.00     0.068 A 
HETATM    3  C   UNK N   1     153.950 147.105 160.803  0.00  0.00     0.114 A 
HETATM    4  N   UNK N   1     154.801 147.692 159.937  0.00  0.00    -0.297 N 
HETATM    5  N   UNK N   1     156.037 147.284 160.162  0.00  0.00    -0.284 N 
ATOM      6  HN  UNK N   1     156.872 147.577 159.656  1.00  0.00     0.188 HD
ENDROOT
BRANCH   1   7
HETATM    7  N   UNK N   1     157.131 145.752 161.706  0.00  0.00    -0.370 N 
HETATM    8  H   UNK N   1     157.190 145.581 162.674  0.00  0.00     0.161 HD
BRANCH   7   9
HETATM    9  C   UNK N   1     158.207 145.324 160.844  0.00  0.00     0.179 C 
BRANCH   9  10
HETATM   10  C   UNK N   1     159.437 146.134 161.085  0.00  0.00     0.044 A 
HETATM   11  C   UNK N   1     160.005 146.396 162.312  0.00  0.00     0.047 A 
HETATM   12  C   UNK N   1     161.085 147.215 162.019  0.00  0.00     0.109 A 
HETATM   13  N   UNK N   1     161.126 147.417 160.686  0.00  0.00    -0.312 N 
HETATM   14  N   UNK N   1     160.123 146.765 160.120  0.00  0.00    -0.304 N 
HETATM   15  H   UNK N   1     161.794 147.961 160.211  0.00  0.00     0.186 HD
ATOM     16  HN  UNK N   1     159.909 146.746 159.123  1.00  0.00     0.186 HD
ENDBRANCH   9  10
ENDBRANCH   7   9
ENDBRANCH   1   7
BRANCH   4  17
HETATM   17  C   UNK N   1     154.438 148.674 158.925  0.00  0.00     0.186 C 
BRANCH  17  18
HETATM   18  C   UNK N   1     155.167 148.420 157.646  0.00  0.00    -0.039 A 
HETATM   19  C   UNK N   1     156.230 149.247 157.267  0.00  0.00     0.009 A 
HETATM   20  C   UNK N   1     156.923 149.000 156.079  0.00  0.00     0.001 A 
HETATM   21  C   UNK N   1     156.559 147.920 155.269  0.00  0.00     0.000 A 
HETATM   22  C   UNK N   1     155.502 147.087 155.647  0.00  0.00     0.001 A 
HETATM   23  C   UNK N   1     154.806 147.336 156.836  0.00  0.00     0.009 A 
ENDBRANCH  17  18
ENDBRANCH   4  17
TORSDOF 5
ENDMDL
