MODEL 1
REMARK VINA RESULT:      -7.0      0.000      0.000
REMARK  2 active torsions:
REMARK  status: ('A' for Active; 'I' for Inactive)
REMARK    1  A    between atoms: C_5  and  C_6 
REMARK       I    between atoms: C_6  and  N_8 
REMARK    2  A    between atoms: N_11  and  C_12 
ROOT
HETATM    1  C   UNK N   1     169.414 148.179 154.391  0.00  0.00     0.051 A 
HETATM    2  C   UNK N   1     170.580 147.392 154.326  0.00  0.00     0.031 A 
HETATM    3  C   UNK N   1     170.929 146.529 155.352  0.00  0.00     0.002 A 
HETATM    4  C   UNK N   1     170.118 146.433 156.476  0.00  0.00     0.002 A 
HETATM    5  C   UNK N   1     168.957 147.199 156.571  0.00  0.00     0.025 A 
HETATM    6  C   UNK N   1     168.591 148.072 155.544  0.00  0.00     0.071 A 
HETATM    7  C   UNK N   1     167.384 148.832 155.709  0.00  0.00     0.102 C 
HETATM    8  N   UNK N   1     166.419 149.463 155.803  0.00  0.00    -0.191 NA
ENDROOT
BRANCH   1   9
HETATM    9  N   UNK N   1     169.128 149.041 153.282  0.00  0.00    -0.377 N 
HETATM   10  C   UNK N   1     168.730 148.412 152.046  0.00  0.00     0.143 C 
HETATM   11  C   UNK N   1     169.576 148.969 150.963  0.00  0.00     0.145 C 
HETATM   12  N   UNK N   1     169.187 150.340 150.880  0.00  0.00    -0.347 N 
HETATM   13  C   UNK N   1     168.523 150.749 149.768  0.00  0.00     0.249 C 
HETATM   14  C   UNK N   1     169.471 151.206 152.013  0.00  0.00     0.145 C 
HETATM   15  O   UNK N   1     168.255 149.948 148.886  0.00  0.00    -0.270 OA
HETATM   16  C   UNK N   1     169.167 150.502 153.361  0.00  0.00     0.143 C 
BRANCH  13  17
HETATM   17  C   UNK N   1     168.145 152.147 149.569  0.00  0.00     0.214 C 
HETATM   18  C   UNK N   1     168.544 152.589 148.196  0.00  0.00     0.044 C 
HETATM   19  C   UNK N   1     167.646 153.787 148.039  0.00  0.00     0.034 C 
HETATM   20  C   UNK N   1     166.615 153.605 149.147  0.00  0.00     0.118 C 
HETATM   21  C   UNK N   1     166.898 154.537 150.328  0.00  0.00     0.039 C 
HETATM   22  O   UNK N   1     166.756 152.291 149.586  0.00  0.00    -0.372 OA
ENDBRANCH  13  17
ENDBRANCH   1   9
TORSDOF 2
ENDMDL
MODEL 2
REMARK VINA RESULT:      -6.7      4.101      7.871
REMARK  2 active torsions:
REMARK  status: ('A' for Active; 'I' for Inactive)
REMARK    1  A    between atoms: C_5  and  C_6 
REMARK       I    between atoms: C_6  and  N_8 
REMARK    2  A    between atoms: N_11  and  C_12 
ROOT
HETATM    1  C   UNK N   1     166.467 155.780 153.935  0.00  0.00     0.051 A 
HETATM    2  C   UNK N   1     165.084 155.853 154.195  0.00  0.00     0.031 A 
HETATM    3  C   UNK N   1     164.410 157.063 154.194  0.00  0.00     0.002 A 
HETATM    4  C   UNK N   1     165.105 158.238 153.934  0.00  0.00     0.002 A 
HETATM    5  C   UNK N   1     166.475 158.200 153.674  0.00  0.00     0.025 A 
HETATM    6  C   UNK N   1     167.167 156.987 153.670  0.00  0.00     0.071 A 
HETATM    7  C   UNK N   1     168.576 157.021 153.396  0.00  0.00     0.102 C 
HETATM    8  N   UNK N   1     169.713 157.006 153.180  0.00  0.00    -0.191 NA
ENDROOT
BRANCH   1   9
HETATM    9  N   UNK N   1     167.081 154.486 153.952  0.00  0.00    -0.377 N 
HETATM   10  C   UNK N   1     166.923 153.698 155.150  0.00  0.00     0.143 C 
HETATM   11  C   UNK N   1     168.268 153.230 155.564  0.00  0.00     0.145 C 
HETATM   12  N   UNK N   1     168.667 152.337 154.526  0.00  0.00    -0.347 N 
HETATM   13  C   UNK N   1     168.764 151.015 154.821  0.00  0.00     0.249 C 
HETATM   14  C   UNK N   1     168.891 152.883 153.196  0.00  0.00     0.145 C 
HETATM   15  O   UNK N   1     168.490 150.618 155.943  0.00  0.00    -0.270 OA
HETATM   16  C   UNK N   1     167.801 153.916 152.811  0.00  0.00     0.143 C 
BRANCH  13  17
HETATM   17  C   UNK N   1     169.228 150.038 153.838  0.00  0.00     0.214 C 
HETATM   18  C   UNK N   1     170.606 149.577 154.195  0.00  0.00     0.044 C 
HETATM   19  C   UNK N   1     170.656 148.288 153.418  0.00  0.00     0.034 C 
HETATM   20  C   UNK N   1     169.194 148.021 153.078  0.00  0.00     0.118 C 
HETATM   21  C   UNK N   1     168.892 148.365 151.618  0.00  0.00     0.039 C 
HETATM   22  O   UNK N   1     168.453 148.877 153.889  0.00  0.00    -0.372 OA
ENDBRANCH  13  17
ENDBRANCH   1   9
TORSDOF 2
ENDMDL
MODEL 3
REMARK VINA RESULT:      -5.9      7.925     10.606
REMARK  2 active torsions:
REMARK  status: ('A' for Active; 'I' for Inactive)
REMARK    1  A    between atoms: C_5  and  C_6 
REMARK       I    between atoms: C_6  and  N_8 
REMARK    2  A    between atoms: N_11  and  C_12 
ROOT
HETATM    1  C   UNK N   1     166.232 155.440 154.785  0.00  0.00     0.051 A 
HETATM    2  C   UNK N   1     166.843 154.172 154.717  0.00  0.00     0.031 A 
HETATM    3  C   UNK N   1     167.910 153.927 153.868  0.00  0.00     0.002 A 
HETATM    4  C   UNK N   1     168.395 154.948 153.060  0.00  0.00     0.002 A 
HETATM    5  C   UNK N   1     167.812 156.214 153.103  0.00  0.00     0.025 A 
HETATM    6  C   UNK N   1     166.737 156.476 153.955  0.00  0.00     0.071 A 
HETATM    7  C   UNK N   1     166.184 157.802 153.948  0.00  0.00     0.102 C 
HETATM    8  N   UNK N   1     165.710 158.857 153.972  0.00  0.00    -0.191 NA
ENDROOT
BRANCH   1   9
HETATM    9  N   UNK N   1     165.138 155.605 155.695  0.00  0.00    -0.377 N 
HETATM   10  C   UNK N   1     163.812 155.366 155.179  0.00  0.00     0.143 C 
HETATM   11  C   UNK N   1     162.971 156.534 155.537  0.00  0.00     0.145 C 
HETATM   12  N   UNK N   1     162.882 156.482 156.961  0.00  0.00    -0.347 N 
HETATM   13  C   UNK N   1     161.678 156.190 157.515  0.00  0.00     0.249 C 
HETATM   14  C   UNK N   1     164.096 156.687 157.734  0.00  0.00     0.145 C 
HETATM   15  O   UNK N   1     160.715 155.958 156.800  0.00  0.00    -0.270 OA
HETATM   16  C   UNK N   1     165.305 155.943 157.110  0.00  0.00     0.143 C 
BRANCH  13  17
HETATM   17  C   UNK N   1     161.479 156.181 158.964  0.00  0.00     0.214 C 
HETATM   18  C   UNK N   1     160.017 156.256 159.275  0.00  0.00     0.044 C 
HETATM   19  C   UNK N   1     160.026 155.730 160.685  0.00  0.00     0.034 C 
HETATM   20  C   UNK N   1     161.395 155.072 160.810  0.00  0.00     0.118 C 
HETATM   21  C   UNK N   1     162.361 155.949 161.611  0.00  0.00     0.039 C 
HETATM   22  O   UNK N   1     161.884 154.961 159.511  0.00  0.00    -0.372 OA
ENDBRANCH  13  17
ENDBRANCH   1   9
TORSDOF 2
ENDMDL
MODEL 4
REMARK VINA RESULT:      -5.8      7.992     10.823
REMARK  2 active torsions:
REMARK  status: ('A' for Active; 'I' for Inactive)
REMARK    1  A    between atoms: C_5  and  C_6 
REMARK       I    between atoms: C_6  and  N_8 
REMARK    2  A    between atoms: N_11  and  C_12 
ROOT
HETATM    1  C   UNK N   1     166.208 156.322 155.063  0.00  0.00     0.051 A 
HETATM    2  C   UNK N   1     166.558 157.536 154.440  0.00  0.00     0.031 A 
HETATM    3  C   UNK N   1     167.630 157.620 153.566  0.00  0.00     0.002 A 
HETATM    4  C   UNK N   1     168.384 156.486 153.292  0.00  0.00     0.002 A 
HETATM    5  C   UNK N   1     168.064 155.268 153.892  0.00  0.00     0.025 A 
HETATM    6  C   UNK N   1     166.986 155.168 154.774  0.00  0.00     0.071 A 
HETATM    7  C   UNK N   1     166.714 153.885 155.357  0.00  0.00     0.102 C 
HETATM    8  N   UNK N   1     166.462 152.868 155.849  0.00  0.00    -0.191 NA
ENDROOT
BRANCH   1   9
HETATM    9  N   UNK N   1     165.083 156.327 155.949  0.00  0.00    -0.377 N 
HETATM   10  C   UNK N   1     163.792 156.038 155.374  0.00  0.00     0.143 C 
HETATM   11  C   UNK N   1     162.856 157.106 155.805  0.00  0.00     0.145 C 
HETATM   12  N   UNK N   1     162.737 156.924 157.215  0.00  0.00    -0.347 N 
HETATM   13  C   UNK N   1     161.545 156.498 157.705  0.00  0.00     0.249 C 
HETATM   14  C   UNK N   1     163.913 157.149 158.040  0.00  0.00     0.145 C 
HETATM   15  O   UNK N   1     160.620 156.259 156.944  0.00  0.00    -0.270 OA
HETATM   16  C   UNK N   1     165.190 156.552 157.392  0.00  0.00     0.143 C 
BRANCH  13  17
HETATM   17  C   UNK N   1     161.313 156.348 159.141  0.00  0.00     0.214 C 
HETATM   18  C   UNK N   1     159.842 156.358 159.419  0.00  0.00     0.044 C 
HETATM   19  C   UNK N   1     159.832 155.701 160.774  0.00  0.00     0.034 C 
HETATM   20  C   UNK N   1     161.216 155.069 160.873  0.00  0.00     0.118 C 
HETATM   21  C   UNK N   1     162.138 155.891 161.777  0.00  0.00     0.039 C 
HETATM   22  O   UNK N   1     161.738 155.093 159.583  0.00  0.00    -0.372 OA
ENDBRANCH  13  17
ENDBRANCH   1   9
TORSDOF 2
ENDMDL
MODEL 5
REMARK VINA RESULT:      -5.6      8.498     11.108
REMARK  2 active torsions:
REMARK  status: ('A' for Active; 'I' for Inactive)
REMARK    1  A    between atoms: C_5  and  C_6 
REMARK       I    between atoms: C_6  and  N_8 
REMARK    2  A    between atoms: N_11  and  C_12 
ROOT
HETATM    1  C   UNK N   1     165.653 156.486 155.201  0.00  0.00     0.051 A 
HETATM    2  C   UNK N   1     165.965 157.719 154.596  0.00  0.00     0.031 A 
HETATM    3  C   UNK N   1     167.048 157.852 153.741  0.00  0.00     0.002 A 
HETATM    4  C   UNK N   1     167.850 156.751 153.470  0.00  0.00     0.002 A 
HETATM    5  C   UNK N   1     167.568 155.517 154.054  0.00  0.00     0.025 A 
HETATM    6  C   UNK N   1     166.480 155.366 154.915  0.00  0.00     0.071 A 
HETATM    7  C   UNK N   1     166.248 154.067 155.483  0.00  0.00     0.102 C 
HETATM    8  N   UNK N   1     166.028 153.037 155.961  0.00  0.00    -0.191 NA
ENDROOT
BRANCH   1   9
HETATM    9  N   UNK N   1     164.513 156.438 156.067  0.00  0.00    -0.377 N 
HETATM   10  C   UNK N   1     164.747 156.646 157.475  0.00  0.00     0.143 C 
HETATM   11  C   UNK N   1     164.090 155.538 158.211  0.00  0.00     0.145 C 
HETATM   12  N   UNK N   1     162.696 155.741 157.985  0.00  0.00    -0.347 N 
HETATM   13  C   UNK N   1     161.925 156.112 159.038  0.00  0.00     0.249 C 
HETATM   14  C   UNK N   1     162.191 155.595 156.629  0.00  0.00     0.145 C 
HETATM   15  O   UNK N   1     162.432 156.286 160.136  0.00  0.00    -0.270 OA
HETATM   16  C   UNK N   1     163.141 156.246 155.591  0.00  0.00     0.143 C 
BRANCH  13  17
HETATM   17  C   UNK N   1     160.478 156.277 158.913  0.00  0.00     0.214 C 
HETATM   18  C   UNK N   1     159.827 156.067 160.244  0.00  0.00     0.044 C 
HETATM   19  C   UNK N   1     158.514 156.761 160.001  0.00  0.00     0.034 C 
HETATM   20  C   UNK N   1     158.775 157.588 158.747  0.00  0.00     0.118 C 
HETATM   21  C   UNK N   1     158.144 156.938 157.513  0.00  0.00     0.039 C 
HETATM   22  O   UNK N   1     160.157 157.594 158.578  0.00  0.00    -0.372 OA
ENDBRANCH  13  17
ENDBRANCH   1   9
TORSDOF 2
ENDMDL
MODEL 6
REMARK VINA RESULT:      -5.6      8.353     10.958
REMARK  2 active torsions:
REMARK  status: ('A' for Active; 'I' for Inactive)
REMARK    1  A    between atoms: C_5  and  C_6 
REMARK       I    between atoms: C_6  and  N_8 
REMARK    2  A    between atoms: N_11  and  C_12 
ROOT
HETATM    1  C   UNK N   1     165.981 156.052 154.944  0.00  0.00     0.051 A 
HETATM    2  C   UNK N   1     166.489 154.820 154.487  0.00  0.00     0.031 A 
HETATM    3  C   UNK N   1     167.551 154.760 153.599  0.00  0.00     0.002 A 
HETATM    4  C   UNK N   1     168.133 155.935 153.141  0.00  0.00     0.002 A 
HETATM    5  C   UNK N   1     167.652 157.171 153.574  0.00  0.00     0.025 A 
HETATM    6  C   UNK N   1     166.584 157.247 154.470  0.00  0.00     0.071 A 
HETATM    7  C   UNK N   1     166.139 158.552 154.872  0.00  0.00     0.102 C 
HETATM    8  N   UNK N   1     165.751 159.585 155.221  0.00  0.00    -0.191 NA
ENDROOT
BRANCH   1   9
HETATM    9  N   UNK N   1     164.884 156.020 155.865  0.00  0.00    -0.377 N 
HETATM   10  C   UNK N   1     165.206 155.992 157.271  0.00  0.00     0.143 C 
HETATM   11  C   UNK N   1     164.443 154.878 157.887  0.00  0.00     0.145 C 
HETATM   12  N   UNK N   1     163.078 155.282 157.778  0.00  0.00    -0.347 N 
HETATM   13  C   UNK N   1     162.410 155.589 158.918  0.00  0.00     0.249 C 
HETATM   14  C   UNK N   1     162.499 155.398 156.449  0.00  0.00     0.145 C 
HETATM   15  O   UNK N   1     162.983 155.539 159.996  0.00  0.00    -0.270 OA
HETATM   16  C   UNK N   1     163.479 156.071 155.453  0.00  0.00     0.143 C 
BRANCH  13  17
HETATM   17  C   UNK N   1     160.992 155.948 158.907  0.00  0.00     0.214 C 
HETATM   18  C   UNK N   1     160.370 155.593 160.221  0.00  0.00     0.044 C 
HETATM   19  C   UNK N   1     159.150 156.473 160.175  0.00  0.00     0.034 C 
HETATM   20  C   UNK N   1     159.469 157.465 159.062  0.00  0.00     0.118 C 
HETATM   21  C   UNK N   1     158.714 157.119 157.777  0.00  0.00     0.039 C 
HETATM   22  O   UNK N   1     160.833 157.333 158.815  0.00  0.00    -0.372 OA
ENDBRANCH  13  17
ENDBRANCH   1   9
TORSDOF 2
ENDMDL
MODEL 7
REMARK VINA RESULT:      -5.6     12.832     16.049
REMARK  2 active torsions:
REMARK  status: ('A' for Active; 'I' for Inactive)
REMARK    1  A    between atoms: C_5  and  C_6 
REMARK       I    between atoms: C_6  and  N_8 
REMARK    2  A    between atoms: N_11  and  C_12 
ROOT
HETATM    1  C   UNK N   1     157.435 147.399 158.316  0.00  0.00     0.051 A 
HETATM    2  C   UNK N   1     156.901 148.701 158.261  0.00  0.00     0.031 A 
HETATM    3  C   UNK N   1     156.660 149.335 157.053  0.00  0.00     0.002 A 
HETATM    4  C   UNK N   1     156.949 148.680 155.862  0.00  0.00     0.002 A 
HETATM    5  C   UNK N   1     157.478 147.390 155.882  0.00  0.00     0.025 A 
HETATM    6  C   UNK N   1     157.725 146.738 157.092  0.00  0.00     0.071 A 
HETATM    7  C   UNK N   1     158.273 145.411 157.039  0.00  0.00     0.102 C 
HETATM    8  N   UNK N   1     158.714 144.342 157.040  0.00  0.00    -0.191 NA
ENDROOT
BRANCH   1   9
HETATM    9  N   UNK N   1     157.648 146.819 159.609  0.00  0.00    -0.377 N 
HETATM   10  C   UNK N   1     159.009 146.746 160.080  0.00  0.00     0.143 C 
HETATM   11  C   UNK N   1     159.257 145.353 160.529  0.00  0.00     0.145 C 
HETATM   12  N   UNK N   1     158.410 145.192 161.666  0.00  0.00    -0.347 N 
HETATM   13  C   UNK N   1     158.995 145.063 162.884  0.00  0.00     0.249 C 
HETATM   14  C   UNK N   1     156.971 145.233 161.464  0.00  0.00     0.145 C 
HETATM   15  O   UNK N   1     160.211 145.110 162.987  0.00  0.00    -0.270 OA
HETATM   16  C   UNK N   1     156.563 146.358 160.478  0.00  0.00     0.143 C 
BRANCH  13  17
HETATM   17  C   UNK N   1     158.209 144.827 164.094  0.00  0.00     0.214 C 
HETATM   18  C   UNK N   1     158.238 143.372 164.442  0.00  0.00     0.044 C 
HETATM   19  C   UNK N   1     157.849 143.446 165.894  0.00  0.00     0.034 C 
HETATM   20  C   UNK N   1     158.051 144.917 166.242  0.00  0.00     0.118 C 
HETATM   21  C   UNK N   1     156.715 145.660 166.312  0.00  0.00     0.039 C 
HETATM   22  O   UNK N   1     158.795 145.456 165.195  0.00  0.00    -0.372 OA
ENDBRANCH  13  17
ENDBRANCH   1   9
TORSDOF 2
ENDMDL
MODEL 8
REMARK VINA RESULT:      -5.5      9.119     11.653
REMARK  2 active torsions:
REMARK  status: ('A' for Active; 'I' for Inactive)
REMARK    1  A    between atoms: C_5  and  C_6 
REMARK       I    between atoms: C_6  and  N_8 
REMARK    2  A    between atoms: N_11  and  C_12 
ROOT
HETATM    1  C   UNK N   1     165.363 160.717 158.881  0.00  0.00     0.051 A 
HETATM    2  C   UNK N   1     165.245 160.537 160.274  0.00  0.00     0.031 A 
HETATM    3  C   UNK N   1     164.958 161.598 161.119  0.00  0.00     0.002 A 
HETATM    4  C   UNK N   1     164.783 162.871 160.591  0.00  0.00     0.002 A 
HETATM    5  C   UNK N   1     164.894 163.082 159.217  0.00  0.00     0.025 A 
HETATM    6  C   UNK N   1     165.181 162.023 158.353  0.00  0.00     0.071 A 
HETATM    7  C   UNK N   1     165.282 162.312 156.950  0.00  0.00     0.102 C 
HETATM    8  N   UNK N   1     165.373 162.503 155.812  0.00  0.00    -0.191 NA
ENDROOT
BRANCH   1   9
HETATM    9  N   UNK N   1     165.656 159.564 158.083  0.00  0.00    -0.377 N 
HETATM   10  C   UNK N   1     164.538 158.770 157.638  0.00  0.00     0.143 C 
HETATM   11  C   UNK N   1     164.822 157.355 157.982  0.00  0.00     0.145 C 
HETATM   12  N   UNK N   1     165.936 157.008 157.160  0.00  0.00    -0.347 N 
HETATM   13  C   UNK N   1     165.738 156.110 156.161  0.00  0.00     0.249 C 
HETATM   14  C   UNK N   1     167.204 157.679 157.400  0.00  0.00     0.145 C 
HETATM   15  O   UNK N   1     164.626 155.641 155.972  0.00  0.00    -0.270 OA
HETATM   16  C   UNK N   1     167.009 159.195 157.661  0.00  0.00     0.143 C 
BRANCH  13  17
HETATM   17  C   UNK N   1     166.835 155.647 155.313  0.00  0.00     0.214 C 
HETATM   18  C   UNK N   1     166.639 154.203 154.975  0.00  0.00     0.044 C 
HETATM   19  C   UNK N   1     167.520 154.100 153.759  0.00  0.00     0.034 C 
HETATM   20  C   UNK N   1     167.752 155.554 153.365  0.00  0.00     0.118 C 
HETATM   21  C   UNK N   1     169.148 156.027 153.780  0.00  0.00     0.039 C 
HETATM   22  O   UNK N   1     166.812 156.296 154.076  0.00  0.00    -0.372 OA
ENDBRANCH  13  17
ENDBRANCH   1   9
TORSDOF 2
ENDMDL
MODEL 9
REMARK VINA RESULT:      -5.5      8.191     10.245
REMARK  2 active torsions:
REMARK  status: ('A' for Active; 'I' for Inactive)
REMARK    1  A    between atoms: C_5  and  C_6 
REMARK       I    between atoms: C_6  and  N_8 
REMARK    2  A    between atoms: N_11  and  C_12 
ROOT
HETATM    1  C   UNK N   1     162.251 155.740 159.524  0.00  0.00     0.051 A 
HETATM    2  C   UNK N   1     162.828 155.392 160.761  0.00  0.00     0.031 A 
HETATM    3  C   UNK N   1     162.047 155.085 161.864  0.00  0.00     0.002 A 
HETATM    4  C   UNK N   1     160.662 155.120 161.757  0.00  0.00     0.002 A 
HETATM    5  C   UNK N   1     160.060 155.461 160.547  0.00  0.00     0.025 A 
HETATM    6  C   UNK N   1     160.834 155.771 159.427  0.00  0.00     0.071 A 
HETATM    7  C   UNK N   1     160.148 156.115 158.212  0.00  0.00     0.102 C 
HETATM    8  N   UNK N   1     159.634 156.398 157.215  0.00  0.00    -0.191 NA
ENDROOT
BRANCH   1   9
HETATM    9  N   UNK N   1     163.134 156.038 158.436  0.00  0.00    -0.377 N 
HETATM   10  C   UNK N   1     163.486 157.422 158.235  0.00  0.00     0.143 C 
HETATM   11  C   UNK N   1     163.248 157.745 156.806  0.00  0.00     0.145 C 
HETATM   12  N   UNK N   1     164.210 156.962 156.101  0.00  0.00    -0.347 N 
HETATM   13  C   UNK N   1     165.222 157.609 155.470  0.00  0.00     0.249 C 
HETATM   14  C   UNK N   1     164.086 155.513 156.148  0.00  0.00     0.145 C 
HETATM   15  O   UNK N   1     165.304 158.826 155.534  0.00  0.00    -0.270 OA
HETATM   16  C   UNK N   1     163.728 155.015 157.573  0.00  0.00     0.143 C 
BRANCH  13  17
HETATM   17  C   UNK N   1     166.214 156.893 154.670  0.00  0.00     0.214 C 
HETATM   18  C   UNK N   1     166.851 157.831 153.693  0.00  0.00     0.044 C 
HETATM   19  C   UNK N   1     168.109 157.065 153.382  0.00  0.00     0.034 C 
HETATM   20  C   UNK N   1     168.185 156.036 154.504  0.00  0.00     0.118 C 
HETATM   21  C   UNK N   1     167.757 154.650 154.015  0.00  0.00     0.039 C 
HETATM   22  O   UNK N   1     167.274 156.457 155.469  0.00  0.00    -0.372 OA
ENDBRANCH  13  17
ENDBRANCH   1   9
TORSDOF 2
ENDMDL
