MODEL 1
REMARK VINA RESULT:      -6.4      0.000      0.000
REMARK  4 active torsions:
REMARK  status: ('A' for Active; 'I' for Inactive)
REMARK    1  A    between atoms: C_3  and  C_2 
REMARK       I    between atoms: N_11  and  C_12 
REMARK    2  A    between atoms: C_12  and  C_14 
REMARK    3  A    between atoms: C_14  and  C_15 
REMARK    4  A    between atoms: C_18  and  N_19 
ROOT
HETATM    1  C   UNK N   1     166.435 156.304 155.472  0.00  0.00     0.137 C 
HETATM    2  C   UNK N   1     166.270 157.581 156.230  0.00  0.00     0.034 A 
HETATM    3  C   UNK N   1     165.325 158.579 156.114  0.00  0.00     0.028 A 
HETATM    4  C   UNK N   1     165.717 159.569 157.014  0.00  0.00     0.019 A 
HETATM    5  C   UNK N   1     166.890 159.126 157.616  0.00  0.00     0.091 A 
HETATM    6  N   UNK N   1     167.193 157.917 157.123  0.00  0.00    -0.357 N 
HETATM    7  C   UNK N   1     168.346 157.074 157.394  0.00  0.00     0.148 C 
HETATM    8  C   UNK N   1     168.890 156.524 156.055  0.00  0.00     0.147 C 
HETATM    9  N   UNK N   1     167.852 156.253 155.042  0.00  0.00    -0.340 N 
HETATM   10  C   UNK N   1     168.285 156.031 153.753  0.00  0.00     0.224 C 
HETATM   11  O   UNK N   1     169.488 156.061 153.517  0.00  0.00    -0.273 OA
ENDROOT
BRANCH  10  12
HETATM   12  C   UNK N   1     167.344 155.745 152.604  0.00  0.00     0.141 C 
BRANCH  12  13
HETATM   13  C   UNK N   1     167.618 154.434 151.943  0.00  0.00    -0.049 A 
HETATM   14  C   UNK N   1     167.279 154.245 150.599  0.00  0.00     0.010 A 
HETATM   15  C   UNK N   1     167.578 153.038 149.967  0.00  0.00     0.032 A 
HETATM   16  C   UNK N   1     168.221 152.010 150.673  0.00  0.00     0.056 A 
HETATM   17  C   UNK N   1     168.547 152.202 152.024  0.00  0.00     0.032 A 
HETATM   18  C   UNK N   1     168.245 153.411 152.658  0.00  0.00     0.010 A 
BRANCH  16  19
HETATM   19  N   UNK N   1     168.561 150.780 150.017  0.00  0.00    -0.268 N 
HETATM   20  C   UNK N   1     169.378 150.646 148.959  0.00  0.00     0.118 A 
HETATM   21  C   UNK N   1     169.453 149.301 148.645  0.00  0.00     0.038 A 
HETATM   22  C   UNK N   1     168.640 148.666 149.572  0.00  0.00     0.109 A 
HETATM   23  N   UNK N   1     168.115 149.594 150.394  0.00  0.00    -0.305 N 
ATOM     24  HN  UNK N   1     167.481 149.414 151.171  1.00  0.00     0.186 HD
ENDBRANCH  16  19
ENDBRANCH  12  13
ENDBRANCH  10  12
BRANCH   1  25
HETATM   25  C   UNK N   1     165.339 156.083 154.424  0.00  0.00     0.027 C 
HETATM   26  C   UNK N   1     164.197 155.252 154.982  0.00  0.00     0.007 C 
ENDBRANCH   1  25
TORSDOF 4
ENDMDL
MODEL 2
REMARK VINA RESULT:      -6.3      1.850      2.929
REMARK  4 active torsions:
REMARK  status: ('A' for Active; 'I' for Inactive)
REMARK    1  A    between atoms: C_3  and  C_2 
REMARK       I    between atoms: N_11  and  C_12 
REMARK    2  A    between atoms: C_12  and  C_14 
REMARK    3  A    between atoms: C_14  and  C_15 
REMARK    4  A    between atoms: C_18  and  N_19 
ROOT
HETATM    1  C   UNK N   1     166.238 156.638 154.810  0.00  0.00     0.137 C 
HETATM    2  C   UNK N   1     165.690 157.684 155.725  0.00  0.00     0.034 A 
HETATM    3  C   UNK N   1     166.329 158.669 156.449  0.00  0.00     0.028 A 
HETATM    4  C   UNK N   1     165.329 159.290 157.195  0.00  0.00     0.019 A 
HETATM    5  C   UNK N   1     164.138 158.637 156.899  0.00  0.00     0.091 A 
HETATM    6  N   UNK N   1     164.391 157.674 156.001  0.00  0.00    -0.357 N 
HETATM    7  C   UNK N   1     163.490 156.689 155.426  0.00  0.00     0.148 C 
HETATM    8  C   UNK N   1     164.180 155.306 155.445  0.00  0.00     0.147 C 
HETATM    9  N   UNK N   1     165.641 155.352 155.237  0.00  0.00    -0.340 N 
HETATM   10  C   UNK N   1     166.344 154.201 155.518  0.00  0.00     0.224 C 
HETATM   11  O   UNK N   1     165.735 153.213 155.911  0.00  0.00    -0.273 OA
ENDROOT
BRANCH  10  12
HETATM   12  C   UNK N   1     167.845 154.093 155.359  0.00  0.00     0.141 C 
BRANCH  12  13
HETATM   13  C   UNK N   1     168.245 153.251 154.192  0.00  0.00    -0.049 A 
HETATM   14  C   UNK N   1     168.888 152.027 154.402  0.00  0.00     0.010 A 
HETATM   15  C   UNK N   1     169.218 151.216 153.315  0.00  0.00     0.032 A 
HETATM   16  C   UNK N   1     168.908 151.624 152.009  0.00  0.00     0.056 A 
HETATM   17  C   UNK N   1     168.274 152.859 151.805  0.00  0.00     0.032 A 
HETATM   18  C   UNK N   1     167.945 153.671 152.894  0.00  0.00     0.010 A 
BRANCH  16  19
HETATM   19  N   UNK N   1     169.216 150.779 150.892  0.00  0.00    -0.268 N 
HETATM   20  C   UNK N   1     168.608 150.796 149.693  0.00  0.00     0.118 A 
HETATM   21  C   UNK N   1     169.211 149.842 148.895  0.00  0.00     0.038 A 
HETATM   22  C   UNK N   1     170.194 149.271 149.690  0.00  0.00     0.109 A 
HETATM   23  N   UNK N   1     170.172 149.866 150.897  0.00  0.00    -0.305 N 
ATOM     24  HN  UNK N   1     170.786 149.649 151.681  1.00  0.00     0.186 HD
ENDBRANCH  16  19
ENDBRANCH  12  13
ENDBRANCH  10  12
BRANCH   1  25
HETATM   25  C   UNK N   1     167.759 156.724 154.643  0.00  0.00     0.027 C 
HETATM   26  C   UNK N   1     168.137 157.334 153.305  0.00  0.00     0.007 C 
ENDBRANCH   1  25
TORSDOF 4
ENDMDL
MODEL 3
REMARK VINA RESULT:      -6.2      2.291      3.270
REMARK  4 active torsions:
REMARK  status: ('A' for Active; 'I' for Inactive)
REMARK    1  A    between atoms: C_3  and  C_2 
REMARK       I    between atoms: N_11  and  C_12 
REMARK    2  A    between atoms: C_12  and  C_14 
REMARK    3  A    between atoms: C_14  and  C_15 
REMARK    4  A    between atoms: C_18  and  N_19 
ROOT
HETATM    1  C   UNK N   1     164.091 156.905 156.089  0.00  0.00     0.137 C 
HETATM    2  C   UNK N   1     163.159 158.006 156.477  0.00  0.00     0.034 A 
HETATM    3  C   UNK N   1     161.899 158.323 156.014  0.00  0.00     0.028 A 
HETATM    4  C   UNK N   1     161.547 159.501 156.669  0.00  0.00     0.019 A 
HETATM    5  C   UNK N   1     162.620 159.849 157.483  0.00  0.00     0.091 A 
HETATM    6  N   UNK N   1     163.576 158.919 157.348  0.00  0.00    -0.357 N 
HETATM    7  C   UNK N   1     164.902 158.866 157.942  0.00  0.00     0.148 C 
HETATM    8  C   UNK N   1     165.926 158.476 156.850  0.00  0.00     0.147 C 
HETATM    9  N   UNK N   1     165.406 157.538 155.836  0.00  0.00    -0.340 N 
HETATM   10  C   UNK N   1     166.164 157.371 154.699  0.00  0.00     0.224 C 
HETATM   11  O   UNK N   1     167.216 157.991 154.589  0.00  0.00    -0.273 OA
ENDROOT
BRANCH  10  12
HETATM   12  C   UNK N   1     165.763 156.449 153.568  0.00  0.00     0.141 C 
BRANCH  12  13
HETATM   13  C   UNK N   1     166.686 155.285 153.415  0.00  0.00    -0.049 A 
HETATM   14  C   UNK N   1     167.029 154.515 154.531  0.00  0.00     0.010 A 
HETATM   15  C   UNK N   1     167.852 153.398 154.382  0.00  0.00     0.032 A 
HETATM   16  C   UNK N   1     168.338 153.041 153.115  0.00  0.00     0.056 A 
HETATM   17  C   UNK N   1     167.999 153.826 152.002  0.00  0.00     0.032 A 
HETATM   18  C   UNK N   1     167.176 154.945 152.152  0.00  0.00     0.010 A 
BRANCH  16  19
HETATM   19  N   UNK N   1     169.156 151.875 152.953  0.00  0.00    -0.268 N 
HETATM   20  C   UNK N   1     170.287 151.600 153.626  0.00  0.00     0.118 A 
HETATM   21  C   UNK N   1     170.758 150.377 153.187  0.00  0.00     0.038 A 
HETATM   22  C   UNK N   1     169.847 149.958 152.229  0.00  0.00     0.109 A 
HETATM   23  N   UNK N   1     168.884 150.891 152.113  0.00  0.00    -0.305 N 
ATOM     24  HN  UNK N   1     168.082 150.847 151.485  1.00  0.00     0.186 HD
ENDBRANCH  16  19
ENDBRANCH  12  13
ENDBRANCH  10  12
BRANCH   1  25
HETATM   25  C   UNK N   1     163.505 155.972 155.023  0.00  0.00     0.027 C 
HETATM   26  C   UNK N   1     163.181 154.605 155.600  0.00  0.00     0.007 C 
ENDBRANCH   1  25
TORSDOF 4
ENDMDL
MODEL 4
REMARK VINA RESULT:      -6.1     13.558     15.555
REMARK  4 active torsions:
REMARK  status: ('A' for Active; 'I' for Inactive)
REMARK    1  A    between atoms: C_3  and  C_2 
REMARK       I    between atoms: N_11  and  C_12 
REMARK    2  A    between atoms: C_12  and  C_14 
REMARK    3  A    between atoms: C_14  and  C_15 
REMARK    4  A    between atoms: C_18  and  N_19 
ROOT
HETATM    1  C   UNK N   1     156.675 146.164 157.894  0.00  0.00     0.137 C 
HETATM    2  C   UNK N   1     156.275 147.579 157.629  0.00  0.00     0.034 A 
HETATM    3  C   UNK N   1     157.002 148.642 157.136  0.00  0.00     0.028 A 
HETATM    4  C   UNK N   1     156.143 149.737 157.188  0.00  0.00     0.019 A 
HETATM    5  C   UNK N   1     154.943 149.285 157.727  0.00  0.00     0.091 A 
HETATM    6  N   UNK N   1     155.055 147.973 157.977  0.00  0.00    -0.357 N 
HETATM    7  C   UNK N   1     154.099 147.066 158.591  0.00  0.00     0.148 C 
HETATM    8  C   UNK N   1     154.834 146.192 159.633  0.00  0.00     0.147 C 
HETATM    9  N   UNK N   1     156.223 145.852 159.270  0.00  0.00    -0.340 N 
HETATM   10  C   UNK N   1     157.013 145.320 160.266  0.00  0.00     0.224 C 
HETATM   11  O   UNK N   1     156.531 145.153 161.381  0.00  0.00    -0.273 OA
ENDROOT
BRANCH  10  12
HETATM   12  C   UNK N   1     158.457 144.925 160.050  0.00  0.00     0.141 C 
BRANCH  12  13
HETATM   13  C   UNK N   1     159.380 145.534 161.054  0.00  0.00    -0.049 A 
HETATM   14  C   UNK N   1     159.571 144.915 162.294  0.00  0.00     0.010 A 
HETATM   15  C   UNK N   1     160.469 145.457 163.214  0.00  0.00     0.032 A 
HETATM   16  C   UNK N   1     161.186 146.621 162.901  0.00  0.00     0.056 A 
HETATM   17  C   UNK N   1     160.980 147.244 161.660  0.00  0.00     0.032 A 
HETATM   18  C   UNK N   1     160.079 146.702 160.740  0.00  0.00     0.010 A 
BRANCH  16  19
HETATM   19  N   UNK N   1     162.135 147.162 163.830  0.00  0.00    -0.268 N 
HETATM   20  C   UNK N   1     161.882 148.082 164.777  0.00  0.00     0.118 A 
HETATM   21  C   UNK N   1     163.056 148.318 165.468  0.00  0.00     0.038 A 
HETATM   22  C   UNK N   1     163.999 147.491 164.875  0.00  0.00     0.109 A 
HETATM   23  N   UNK N   1     163.405 146.800 163.885  0.00  0.00    -0.305 N 
ATOM     24  HN  UNK N   1     163.857 146.116 163.280  1.00  0.00     0.186 HD
ENDBRANCH  16  19
ENDBRANCH  12  13
ENDBRANCH  10  12
BRANCH   1  25
HETATM   25  C   UNK N   1     158.130 145.872 157.513  0.00  0.00     0.027 C 
HETATM   26  C   UNK N   1     158.225 145.226 156.141  0.00  0.00     0.007 C 
ENDBRANCH   1  25
TORSDOF 4
ENDMDL
MODEL 5
REMARK VINA RESULT:      -6.1      2.689      3.997
REMARK  4 active torsions:
REMARK  status: ('A' for Active; 'I' for Inactive)
REMARK    1  A    between atoms: C_3  and  C_2 
REMARK       I    between atoms: N_11  and  C_12 
REMARK    2  A    between atoms: C_12  and  C_14 
REMARK    3  A    between atoms: C_14  and  C_15 
REMARK    4  A    between atoms: C_18  and  N_19 
ROOT
HETATM    1  C   UNK N   1     164.952 157.188 156.769  0.00  0.00     0.137 C 
HETATM    2  C   UNK N   1     164.874 156.284 157.956  0.00  0.00     0.034 A 
HETATM    3  C   UNK N   1     165.871 155.741 158.739  0.00  0.00     0.028 A 
HETATM    4  C   UNK N   1     165.219 154.904 159.643  0.00  0.00     0.019 A 
HETATM    5  C   UNK N   1     163.861 154.969 159.349  0.00  0.00     0.091 A 
HETATM    6  N   UNK N   1     163.686 155.818 158.326  0.00  0.00    -0.357 N 
HETATM    7  C   UNK N   1     162.466 156.176 157.623  0.00  0.00     0.148 C 
HETATM    8  C   UNK N   1     162.739 156.153 156.101  0.00  0.00     0.147 C 
HETATM    9  N   UNK N   1     164.100 156.579 155.721  0.00  0.00    -0.340 N 
HETATM   10  C   UNK N   1     164.493 156.320 154.427  0.00  0.00     0.224 C 
HETATM   11  O   UNK N   1     163.707 155.766 153.666  0.00  0.00    -0.273 OA
ENDROOT
BRANCH  10  12
HETATM   12  C   UNK N   1     165.858 156.691 153.889  0.00  0.00     0.141 C 
BRANCH  12  13
HETATM   13  C   UNK N   1     166.719 155.501 153.622  0.00  0.00    -0.049 A 
HETATM   14  C   UNK N   1     167.074 154.646 154.671  0.00  0.00     0.010 A 
HETATM   15  C   UNK N   1     167.838 153.506 154.415  0.00  0.00     0.032 A 
HETATM   16  C   UNK N   1     168.252 153.212 153.108  0.00  0.00     0.056 A 
HETATM   17  C   UNK N   1     167.902 154.080 152.062  0.00  0.00     0.032 A 
HETATM   18  C   UNK N   1     167.139 155.222 152.319  0.00  0.00     0.010 A 
BRANCH  16  19
HETATM   19  N   UNK N   1     169.008 152.024 152.836  0.00  0.00    -0.268 N 
HETATM   20  C   UNK N   1     170.043 151.560 153.558  0.00  0.00     0.118 A 
HETATM   21  C   UNK N   1     170.480 150.387 152.972  0.00  0.00     0.038 A 
HETATM   22  C   UNK N   1     169.649 150.195 151.878  0.00  0.00     0.109 A 
HETATM   23  N   UNK N   1     168.764 151.207 151.825  0.00  0.00    -0.305 N 
ATOM     24  HN  UNK N   1     168.032 151.324 151.126  1.00  0.00     0.186 HD
ENDBRANCH  16  19
ENDBRANCH  12  13
ENDBRANCH  10  12
BRANCH   1  25
HETATM   25  C   UNK N   1     166.388 157.586 156.412  0.00  0.00     0.027 C 
HETATM   26  C   UNK N   1     166.653 159.048 156.723  0.00  0.00     0.007 C 
ENDBRANCH   1  25
TORSDOF 4
ENDMDL
MODEL 6
REMARK VINA RESULT:      -6.0      4.821      9.170
REMARK  4 active torsions:
REMARK  status: ('A' for Active; 'I' for Inactive)
REMARK    1  A    between atoms: C_3  and  C_2 
REMARK       I    between atoms: N_11  and  C_12 
REMARK    2  A    between atoms: C_12  and  C_14 
REMARK    3  A    between atoms: C_14  and  C_15 
REMARK    4  A    between atoms: C_18  and  N_19 
ROOT
HETATM    1  C   UNK N   1     166.496 156.163 157.039  0.00  0.00     0.137 C 
HETATM    2  C   UNK N   1     166.437 156.807 155.692  0.00  0.00     0.034 A 
HETATM    3  C   UNK N   1     166.003 158.060 155.313  0.00  0.00     0.028 A 
HETATM    4  C   UNK N   1     166.092 158.081 153.923  0.00  0.00     0.019 A 
HETATM    5  C   UNK N   1     166.560 156.831 153.529  0.00  0.00     0.091 A 
HETATM    6  N   UNK N   1     166.764 156.087 154.625  0.00  0.00    -0.357 N 
HETATM    7  C   UNK N   1     167.191 154.702 154.733  0.00  0.00     0.148 C 
HETATM    8  C   UNK N   1     166.298 153.981 155.769  0.00  0.00     0.147 C 
HETATM    9  N   UNK N   1     165.864 154.831 156.894  0.00  0.00    -0.340 N 
HETATM   10  C   UNK N   1     164.855 154.338 157.692  0.00  0.00     0.224 C 
HETATM   11  O   UNK N   1     164.381 153.236 157.438  0.00  0.00    -0.273 OA
ENDROOT
BRANCH  10  12
HETATM   12  C   UNK N   1     164.299 155.093 158.880  0.00  0.00     0.141 C 
BRANCH  12  13
HETATM   13  C   UNK N   1     162.890 155.542 158.673  0.00  0.00    -0.049 A 
HETATM   14  C   UNK N   1     162.508 156.101 157.448  0.00  0.00     0.010 A 
HETATM   15  C   UNK N   1     161.181 156.477 157.236  0.00  0.00     0.032 A 
HETATM   16  C   UNK N   1     160.225 156.295 158.246  0.00  0.00     0.056 A 
HETATM   17  C   UNK N   1     160.618 155.746 159.476  0.00  0.00     0.032 A 
HETATM   18  C   UNK N   1     161.947 155.372 159.689  0.00  0.00     0.010 A 
BRANCH  16  19
HETATM   19  N   UNK N   1     158.854 156.649 158.020  0.00  0.00    -0.268 N 
HETATM   20  C   UNK N   1     157.952 156.973 158.963  0.00  0.00     0.118 A 
HETATM   21  C   UNK N   1     156.758 157.263 158.330  0.00  0.00     0.038 A 
HETATM   22  C   UNK N   1     157.012 157.091 156.978  0.00  0.00     0.109 A 
HETATM   23  N   UNK N   1     158.296 156.721 156.823  0.00  0.00    -0.305 N 
ATOM     24  HN  UNK N   1     158.760 156.527 155.936  1.00  0.00     0.186 HD
ENDBRANCH  16  19
ENDBRANCH  12  13
ENDBRANCH  10  12
BRANCH   1  25
HETATM   25  C   UNK N   1     166.021 157.086 158.166  0.00  0.00     0.027 C 
HETATM   26  C   UNK N   1     167.191 157.753 158.868  0.00  0.00     0.007 C 
ENDBRANCH   1  25
TORSDOF 4
ENDMDL
MODEL 7
REMARK VINA RESULT:      -6.0     13.250     15.895
REMARK  4 active torsions:
REMARK  status: ('A' for Active; 'I' for Inactive)
REMARK    1  A    between atoms: C_3  and  C_2 
REMARK       I    between atoms: N_11  and  C_12 
REMARK    2  A    between atoms: C_12  and  C_14 
REMARK    3  A    between atoms: C_14  and  C_15 
REMARK    4  A    between atoms: C_18  and  N_19 
ROOT
HETATM    1  C   UNK N   1     156.788 146.311 154.539  0.00  0.00     0.137 C 
HETATM    2  C   UNK N   1     156.097 146.122 153.228  0.00  0.00     0.034 A 
HETATM    3  C   UNK N   1     154.976 146.733 152.706  0.00  0.00     0.028 A 
HETATM    4  C   UNK N   1     154.739 146.099 151.488  0.00  0.00     0.019 A 
HETATM    5  C   UNK N   1     155.719 145.123 151.343  0.00  0.00     0.091 A 
HETATM    6  N   UNK N   1     156.528 145.168 152.410  0.00  0.00    -0.357 N 
HETATM    7  C   UNK N   1     157.658 144.318 152.748  0.00  0.00     0.148 C 
HETATM    8  C   UNK N   1     157.556 143.916 154.237  0.00  0.00     0.147 C 
HETATM    9  N   UNK N   1     156.980 144.957 155.110  0.00  0.00    -0.340 N 
HETATM   10  C   UNK N   1     156.608 144.568 156.378  0.00  0.00     0.224 C 
HETATM   11  O   UNK N   1     156.777 143.402 156.715  0.00  0.00    -0.273 OA
ENDROOT
BRANCH  10  12
HETATM   12  C   UNK N   1     155.998 145.518 157.386  0.00  0.00     0.141 C 
BRANCH  12  13
HETATM   13  C   UNK N   1     156.909 145.804 158.535  0.00  0.00    -0.049 A 
HETATM   14  C   UNK N   1     156.424 145.734 159.845  0.00  0.00     0.010 A 
HETATM   15  C   UNK N   1     157.284 145.954 160.921  0.00  0.00     0.032 A 
HETATM   16  C   UNK N   1     158.638 146.245 160.696  0.00  0.00     0.056 A 
HETATM   17  C   UNK N   1     159.115 146.326 159.378  0.00  0.00     0.032 A 
HETATM   18  C   UNK N   1     158.252 146.108 158.301  0.00  0.00     0.010 A 
BRANCH  16  19
HETATM   19  N   UNK N   1     159.533 146.438 161.799  0.00  0.00    -0.268 N 
HETATM   20  C   UNK N   1     160.291 145.492 162.382  0.00  0.00     0.118 A 
HETATM   21  C   UNK N   1     161.019 146.091 163.393  0.00  0.00     0.038 A 
HETATM   22  C   UNK N   1     160.646 147.427 163.367  0.00  0.00     0.109 A 
HETATM   23  N   UNK N   1     159.743 147.605 162.386  0.00  0.00    -0.305 N 
ATOM     24  HN  UNK N   1     159.297 148.487 162.137  1.00  0.00     0.186 HD
ENDBRANCH  16  19
ENDBRANCH  12  13
ENDBRANCH  10  12
BRANCH   1  25
HETATM   25  C   UNK N   1     156.138 147.392 155.409  0.00  0.00     0.027 C 
HETATM   26  C   UNK N   1     157.071 148.573 155.615  0.00  0.00     0.007 C 
ENDBRANCH   1  25
TORSDOF 4
ENDMDL
MODEL 8
REMARK VINA RESULT:      -6.0      2.038      3.192
REMARK  4 active torsions:
REMARK  status: ('A' for Active; 'I' for Inactive)
REMARK    1  A    between atoms: C_3  and  C_2 
REMARK       I    between atoms: N_11  and  C_12 
REMARK    2  A    between atoms: C_12  and  C_14 
REMARK    3  A    between atoms: C_14  and  C_15 
REMARK    4  A    between atoms: C_18  and  N_19 
ROOT
HETATM    1  C   UNK N   1     165.491 155.787 155.906  0.00  0.00     0.137 C 
HETATM    2  C   UNK N   1     164.997 156.391 154.631  0.00  0.00     0.034 A 
HETATM    3  C   UNK N   1     164.342 155.819 153.560  0.00  0.00     0.028 A 
HETATM    4  C   UNK N   1     164.211 156.836 152.618  0.00  0.00     0.019 A 
HETATM    5  C   UNK N   1     164.811 157.969 153.158  0.00  0.00     0.091 A 
HETATM    6  N   UNK N   1     165.271 157.666 154.380  0.00  0.00    -0.357 N 
HETATM    7  C   UNK N   1     166.019 158.491 155.315  0.00  0.00     0.148 C 
HETATM    8  C   UNK N   1     167.193 157.663 155.887  0.00  0.00     0.147 C 
HETATM    9  N   UNK N   1     166.897 156.228 156.061  0.00  0.00    -0.340 N 
HETATM   10  C   UNK N   1     167.970 155.397 156.298  0.00  0.00     0.224 C 
HETATM   11  O   UNK N   1     169.094 155.881 156.358  0.00  0.00    -0.273 OA
ENDROOT
BRANCH  10  12
HETATM   12  C   UNK N   1     167.829 153.903 156.493  0.00  0.00     0.141 C 
BRANCH  12  13
HETATM   13  C   UNK N   1     168.282 153.119 155.306  0.00  0.00    -0.049 A 
HETATM   14  C   UNK N   1     168.846 151.850 155.481  0.00  0.00     0.010 A 
HETATM   15  C   UNK N   1     169.225 151.095 154.371  0.00  0.00     0.032 A 
HETATM   16  C   UNK N   1     169.042 151.603 153.075  0.00  0.00     0.056 A 
HETATM   17  C   UNK N   1     168.487 152.881 152.908  0.00  0.00     0.032 A 
HETATM   18  C   UNK N   1     168.109 153.637 154.021  0.00  0.00     0.010 A 
BRANCH  16  19
HETATM   19  N   UNK N   1     169.399 150.816 151.931  0.00  0.00    -0.268 N 
HETATM   20  C   UNK N   1     170.563 150.170 151.744  0.00  0.00     0.118 A 
HETATM   21  C   UNK N   1     170.500 149.520 150.526  0.00  0.00     0.038 A 
HETATM   22  C   UNK N   1     169.245 149.821 150.017  0.00  0.00     0.109 A 
HETATM   23  N   UNK N   1     168.600 150.609 150.897  0.00  0.00    -0.305 N 
ATOM     24  HN  UNK N   1     167.659 150.983 150.786  1.00  0.00     0.186 HD
ENDBRANCH  16  19
ENDBRANCH  12  13
ENDBRANCH  10  12
BRANCH   1  25
HETATM   25  C   UNK N   1     165.169 154.294 156.026  0.00  0.00     0.027 C 
HETATM   26  C   UNK N   1     164.170 154.029 157.139  0.00  0.00     0.007 C 
ENDBRANCH   1  25
TORSDOF 4
ENDMDL
MODEL 9
REMARK VINA RESULT:      -5.9      8.942     12.459
REMARK  4 active torsions:
REMARK  status: ('A' for Active; 'I' for Inactive)
REMARK    1  A    between atoms: C_3  and  C_2 
REMARK       I    between atoms: N_11  and  C_12 
REMARK    2  A    between atoms: C_12  and  C_14 
REMARK    3  A    between atoms: C_14  and  C_15 
REMARK    4  A    between atoms: C_18  and  N_19 
ROOT
HETATM    1  C   UNK N   1     154.396 157.251 157.264  0.00  0.00     0.137 C 
HETATM    2  C   UNK N   1     154.500 156.975 155.799  0.00  0.00     0.034 A 
HETATM    3  C   UNK N   1     154.840 155.822 155.124  0.00  0.00     0.028 A 
HETATM    4  C   UNK N   1     154.861 156.172 153.775  0.00  0.00     0.019 A 
HETATM    5  C   UNK N   1     154.551 157.526 153.704  0.00  0.00     0.091 A 
HETATM    6  N   UNK N   1     154.332 157.980 154.946  0.00  0.00    -0.357 N 
HETATM    7  C   UNK N   1     154.035 159.330 155.396  0.00  0.00     0.148 C 
HETATM    8  C   UNK N   1     154.908 159.650 156.632  0.00  0.00     0.147 C 
HETATM    9  N   UNK N   1     155.164 158.493 157.512  0.00  0.00    -0.340 N 
HETATM   10  C   UNK N   1     156.149 158.643 158.463  0.00  0.00     0.224 C 
HETATM   11  O   UNK N   1     156.747 159.711 158.536  0.00  0.00    -0.273 OA
ENDROOT
BRANCH  10  12
HETATM   12  C   UNK N   1     156.531 157.548 159.435  0.00  0.00     0.141 C 
BRANCH  12  13
HETATM   13  C   UNK N   1     157.906 157.016 159.196  0.00  0.00    -0.049 A 
HETATM   14  C   UNK N   1     158.378 156.862 157.888  0.00  0.00     0.010 A 
HETATM   15  C   UNK N   1     159.680 156.411 157.664  0.00  0.00     0.032 A 
HETATM   16  C   UNK N   1     160.520 156.112 158.747  0.00  0.00     0.056 A 
HETATM   17  C   UNK N   1     160.036 156.258 160.056  0.00  0.00     0.032 A 
HETATM   18  C   UNK N   1     158.732 156.708 160.279  0.00  0.00     0.010 A 
BRANCH  16  19
HETATM   19  N   UNK N   1     161.869 155.681 158.521  0.00  0.00    -0.268 N 
HETATM   20  C   UNK N   1     162.736 156.213 157.641  0.00  0.00     0.118 A 
HETATM   21  C   UNK N   1     163.929 155.523 157.746  0.00  0.00     0.038 A 
HETATM   22  C   UNK N   1     163.711 154.567 158.727  0.00  0.00     0.109 A 
HETATM   23  N   UNK N   1     162.449 154.692 159.179  0.00  0.00    -0.305 N 
ATOM     24  HN  UNK N   1     162.015 154.122 159.904  1.00  0.00     0.186 HD
ENDBRANCH  16  19
ENDBRANCH  12  13
ENDBRANCH  10  12
BRANCH   1  25
HETATM   25  C   UNK N   1     154.687 156.020 158.128  0.00  0.00     0.027 C 
HETATM   26  C   UNK N   1     153.406 155.319 158.546  0.00  0.00     0.007 C 
ENDBRANCH   1  25
TORSDOF 4
ENDMDL
