MODEL 1
REMARK VINA RESULT:      -6.3      0.000      0.000
REMARK  4 active torsions:
REMARK  status: ('A' for Active; 'I' for Inactive)
REMARK    1  A    between atoms: C_2  and  C_3 
REMARK       I    between atoms: C_2  and  N_13 
REMARK    2  A    between atoms: C_16  and  S_17 
REMARK    3  A    between atoms: S_17  and  N_20 
REMARK    4  A    between atoms: N_20  and  C_21 
ROOT
HETATM    1  O   UNK N   1     167.827 155.391 152.000  0.00  0.00    -0.267 OA
HETATM    2  C   UNK N   1     167.488 155.083 153.136  0.00  0.00     0.253 C 
HETATM    3  N   UNK N   1     167.808 153.834 153.606  0.00  0.00    -0.347 N 
HETATM    4  C   UNK N   1     167.514 153.361 154.931  0.00  0.00     0.127 C 
HETATM    5  C   UNK N   1     168.069 151.949 154.969  0.00  0.00     0.043 C 
HETATM    6  C   UNK N   1     169.078 151.909 153.833  0.00  0.00     0.143 C 
HETATM    7  C   UNK N   1     168.555 152.897 152.810  0.00  0.00     0.147 C 
ENDROOT
BRANCH   2   8
HETATM    8  C   UNK N   1     166.770 156.115 153.956  0.00  0.00     0.034 A 
HETATM    9  C   UNK N   1     167.458 157.146 154.660  0.00  0.00     0.019 A 
HETATM   10  C   UNK N   1     166.761 158.120 155.400  0.00  0.00     0.034 A 
HETATM   11  C   UNK N   1     165.377 158.037 155.407  0.00  0.00     0.074 A 
HETATM   12  N   UNK N   1     164.484 158.832 156.009  0.00  0.00    -0.282 N 
HETATM   13  C   UNK N   1     164.707 157.065 154.747  0.00  0.00     0.074 A 
HETATM   14  N   UNK N   1     163.283 158.337 155.709  0.00  0.00    -0.022 NA
HETATM   15  H   UNK N   1     164.676 159.623 156.563  0.00  0.00     0.184 HD
HETATM   16  N   UNK N   1     163.394 157.257 154.938  0.00  0.00    -0.282 N 
ATOM     17  HN  UNK N   1     162.632 156.689 154.568  1.00  0.00     0.184 HD
HETATM   18  C   UNK N   1     165.353 156.079 154.012  0.00  0.00     0.050 A 
ENDBRANCH   2   8
BRANCH   6  19
HETATM   19  S   UNK N   1     169.281 150.217 153.194  0.00  0.00     0.215 S 
HETATM   20  O   UNK N   1     169.079 149.086 154.214  0.00  0.00    -0.211 OA
HETATM   21  O   UNK N   1     170.762 150.011 152.839  0.00  0.00    -0.211 OA
BRANCH  19  22
HETATM   22  N   UNK N   1     168.477 149.698 151.691  0.00  0.00    -0.215 NA
HETATM   23  H   UNK N   1     167.684 150.313 151.507  0.00  0.00     0.140 HD
BRANCH  22  24
HETATM   24  C   UNK N   1     169.329 149.639 150.493  0.00  0.00     0.071 A 
HETATM   25  C   UNK N   1     168.828 150.409 149.278  0.00  0.00     0.022 A 
HETATM   26  C   UNK N   1     168.555 148.929 149.392  0.00  0.00     0.022 A 
ENDBRANCH  22  24
ENDBRANCH  19  22
ENDBRANCH   6  19
TORSDOF 4
ENDMDL
MODEL 2
REMARK VINA RESULT:      -6.3      4.118      8.046
REMARK  4 active torsions:
REMARK  status: ('A' for Active; 'I' for Inactive)
REMARK    1  A    between atoms: C_2  and  C_3 
REMARK       I    between atoms: C_2  and  N_13 
REMARK    2  A    between atoms: C_16  and  S_17 
REMARK    3  A    between atoms: S_17  and  N_20 
REMARK    4  A    between atoms: N_20  and  C_21 
ROOT
HETATM    1  O   UNK N   1     170.075 149.531 152.996  0.00  0.00    -0.267 OA
HETATM    2  C   UNK N   1     169.762 149.853 154.134  0.00  0.00     0.253 C 
HETATM    3  N   UNK N   1     169.252 151.109 154.350  0.00  0.00    -0.347 N 
HETATM    4  C   UNK N   1     168.800 151.598 155.624  0.00  0.00     0.127 C 
HETATM    5  C   UNK N   1     168.323 153.012 155.347  0.00  0.00     0.043 C 
HETATM    6  C   UNK N   1     168.072 153.040 153.848  0.00  0.00     0.143 C 
HETATM    7  C   UNK N   1     169.050 152.037 153.269  0.00  0.00     0.147 C 
ENDROOT
BRANCH   2   8
HETATM    8  C   UNK N   1     169.924 148.831 155.221  0.00  0.00     0.034 A 
HETATM    9  C   UNK N   1     171.098 148.751 156.026  0.00  0.00     0.019 A 
HETATM   10  C   UNK N   1     171.216 147.802 157.060  0.00  0.00     0.034 A 
HETATM   11  C   UNK N   1     170.137 146.955 157.265  0.00  0.00     0.074 A 
HETATM   12  N   UNK N   1     169.983 145.986 158.176  0.00  0.00    -0.282 N 
HETATM   13  C   UNK N   1     169.017 147.015 156.510  0.00  0.00     0.074 A 
HETATM   14  N   UNK N   1     168.772 145.469 157.967  0.00  0.00    -0.022 NA
HETATM   15  H   UNK N   1     170.634 145.710 158.862  0.00  0.00     0.184 HD
HETATM   16  N   UNK N   1     168.162 146.082 156.954  0.00  0.00    -0.282 N 
ATOM     17  HN  UNK N   1     167.232 145.881 156.588  1.00  0.00     0.184 HD
HETATM   18  C   UNK N   1     168.860 147.928 155.476  0.00  0.00     0.050 A 
ENDBRANCH   2   8
BRANCH   6  19
HETATM   19  S   UNK N   1     168.255 154.723 153.182  0.00  0.00     0.215 S 
HETATM   20  O   UNK N   1     169.640 155.366 153.355  0.00  0.00    -0.211 OA
HETATM   21  O   UNK N   1     167.399 155.674 154.032  0.00  0.00    -0.211 OA
BRANCH  19  22
HETATM   22  N   UNK N   1     167.709 155.125 151.534  0.00  0.00    -0.215 NA
HETATM   23  H   UNK N   1     168.426 155.684 151.072  0.00  0.00     0.140 HD
BRANCH  22  24
HETATM   24  C   UNK N   1     167.360 153.983 150.675  0.00  0.00     0.071 A 
HETATM   25  C   UNK N   1     167.598 154.171 149.183  0.00  0.00     0.022 A 
HETATM   26  C   UNK N   1     166.223 154.405 149.758  0.00  0.00     0.022 A 
ENDBRANCH  22  24
ENDBRANCH  19  22
ENDBRANCH   6  19
TORSDOF 4
ENDMDL
MODEL 3
REMARK VINA RESULT:      -6.2      3.615      8.231
REMARK  4 active torsions:
REMARK  status: ('A' for Active; 'I' for Inactive)
REMARK    1  A    between atoms: C_2  and  C_3 
REMARK       I    between atoms: C_2  and  N_13 
REMARK    2  A    between atoms: C_16  and  S_17 
REMARK    3  A    between atoms: S_17  and  N_20 
REMARK    4  A    between atoms: N_20  and  C_21 
ROOT
HETATM    1  O   UNK N   1     169.518 149.974 152.661  0.00  0.00    -0.267 OA
HETATM    2  C   UNK N   1     169.288 150.296 153.819  0.00  0.00     0.253 C 
HETATM    3  N   UNK N   1     168.834 151.566 154.075  0.00  0.00    -0.347 N 
HETATM    4  C   UNK N   1     168.480 152.060 155.378  0.00  0.00     0.127 C 
HETATM    5  C   UNK N   1     168.033 153.490 155.141  0.00  0.00     0.043 C 
HETATM    6  C   UNK N   1     167.689 153.539 153.661  0.00  0.00     0.143 C 
HETATM    7  C   UNK N   1     168.595 152.510 153.015  0.00  0.00     0.147 C 
ENDROOT
BRANCH   2   8
HETATM    8  C   UNK N   1     169.486 149.261 154.887  0.00  0.00     0.034 A 
HETATM    9  C   UNK N   1     170.673 149.191 155.673  0.00  0.00     0.019 A 
HETATM   10  C   UNK N   1     170.824 148.228 156.690  0.00  0.00     0.034 A 
HETATM   11  C   UNK N   1     169.765 147.358 156.897  0.00  0.00     0.074 A 
HETATM   12  N   UNK N   1     169.642 146.372 157.794  0.00  0.00    -0.282 N 
HETATM   13  C   UNK N   1     168.632 147.408 156.160  0.00  0.00     0.074 A 
HETATM   14  N   UNK N   1     168.438 145.835 157.596  0.00  0.00    -0.022 NA
HETATM   15  H   UNK N   1     170.308 146.098 158.466  0.00  0.00     0.184 HD
HETATM   16  N   UNK N   1     167.802 146.452 156.602  0.00  0.00    -0.282 N 
ATOM     17  HN  UNK N   1     166.870 146.239 156.246  1.00  0.00     0.184 HD
HETATM   18  C   UNK N   1     168.443 148.335 155.143  0.00  0.00     0.050 A 
ENDBRANCH   2   8
BRANCH   6  19
HETATM   19  S   UNK N   1     167.884 155.221 152.995  0.00  0.00     0.215 S 
HETATM   20  O   UNK N   1     167.874 155.339 151.462  0.00  0.00    -0.211 OA
HETATM   21  O   UNK N   1     169.311 155.699 153.302  0.00  0.00    -0.211 OA
BRANCH  19  22
HETATM   22  N   UNK N   1     166.909 156.576 153.618  0.00  0.00    -0.215 NA
HETATM   23  H   UNK N   1     166.979 157.362 152.972  0.00  0.00     0.140 HD
BRANCH  22  24
HETATM   24  C   UNK N   1     165.490 156.285 153.871  0.00  0.00     0.071 A 
HETATM   25  C   UNK N   1     164.544 156.489 152.695  0.00  0.00     0.022 A 
HETATM   26  C   UNK N   1     164.704 157.579 153.727  0.00  0.00     0.022 A 
ENDBRANCH  22  24
ENDBRANCH  19  22
ENDBRANCH   6  19
TORSDOF 4
ENDMDL
MODEL 4
REMARK VINA RESULT:      -6.1      3.241      4.513
REMARK  4 active torsions:
REMARK  status: ('A' for Active; 'I' for Inactive)
REMARK    1  A    between atoms: C_2  and  C_3 
REMARK       I    between atoms: C_2  and  N_13 
REMARK    2  A    between atoms: C_16  and  S_17 
REMARK    3  A    between atoms: S_17  and  N_20 
REMARK    4  A    between atoms: N_20  and  C_21 
ROOT
HETATM    1  O   UNK N   1     166.762 156.587 157.813  0.00  0.00    -0.267 OA
HETATM    2  C   UNK N   1     166.805 157.394 156.893  0.00  0.00     0.253 C 
HETATM    3  N   UNK N   1     167.101 156.943 155.631  0.00  0.00    -0.347 N 
HETATM    4  C   UNK N   1     167.138 157.771 154.457  0.00  0.00     0.127 C 
HETATM    5  C   UNK N   1     167.495 156.823 153.327  0.00  0.00     0.043 C 
HETATM    6  C   UNK N   1     167.139 155.446 153.862  0.00  0.00     0.143 C 
HETATM    7  C   UNK N   1     167.329 155.548 155.363  0.00  0.00     0.147 C 
ENDROOT
BRANCH   2   8
HETATM    8  C   UNK N   1     166.494 158.829 157.204  0.00  0.00     0.034 A 
HETATM    9  C   UNK N   1     167.468 159.725 157.732  0.00  0.00     0.019 A 
HETATM   10  C   UNK N   1     167.160 161.075 157.989  0.00  0.00     0.034 A 
HETATM   11  C   UNK N   1     165.872 161.495 157.698  0.00  0.00     0.074 A 
HETATM   12  N   UNK N   1     165.327 162.711 157.832  0.00  0.00    -0.282 N 
HETATM   13  C   UNK N   1     164.933 160.659 157.199  0.00  0.00     0.074 A 
HETATM   14  N   UNK N   1     164.067 162.602 157.411  0.00  0.00    -0.022 NA
HETATM   15  H   UNK N   1     165.768 163.522 158.172  0.00  0.00     0.184 HD
HETATM   16  N   UNK N   1     163.803 161.357 157.019  0.00  0.00    -0.282 N 
ATOM     17  HN  UNK N   1     162.917 161.004 156.656  1.00  0.00     0.184 HD
HETATM   18  C   UNK N   1     165.190 159.318 156.938  0.00  0.00     0.050 A 
ENDBRANCH   2   8
BRANCH   6  19
HETATM   19  S   UNK N   1     168.147 154.152 153.074  0.00  0.00     0.215 S 
HETATM   20  O   UNK N   1     168.145 152.782 153.771  0.00  0.00    -0.211 OA
HETATM   21  O   UNK N   1     169.627 154.537 153.221  0.00  0.00    -0.211 OA
BRANCH  19  22
HETATM   22  N   UNK N   1     168.032 153.834 151.325  0.00  0.00    -0.215 NA
HETATM   23  H   UNK N   1     167.990 152.827 151.170  0.00  0.00     0.140 HD
BRANCH  22  24
HETATM   24  C   UNK N   1     166.908 154.476 150.627  0.00  0.00     0.071 A 
HETATM   25  C   UNK N   1     166.294 153.686 149.477  0.00  0.00     0.022 A 
HETATM   26  C   UNK N   1     167.329 154.746 149.190  0.00  0.00     0.022 A 
ENDBRANCH  22  24
ENDBRANCH  19  22
ENDBRANCH   6  19
TORSDOF 4
ENDMDL
MODEL 5
REMARK VINA RESULT:      -6.1      2.599      3.500
REMARK  4 active torsions:
REMARK  status: ('A' for Active; 'I' for Inactive)
REMARK    1  A    between atoms: C_2  and  C_3 
REMARK       I    between atoms: C_2  and  N_13 
REMARK    2  A    between atoms: C_16  and  S_17 
REMARK    3  A    between atoms: S_17  and  N_20 
REMARK    4  A    between atoms: N_20  and  C_21 
ROOT
HETATM    1  O   UNK N   1     167.540 153.569 156.853  0.00  0.00    -0.267 OA
HETATM    2  C   UNK N   1     167.701 153.777 155.657  0.00  0.00     0.253 C 
HETATM    3  N   UNK N   1     168.267 152.794 154.885  0.00  0.00    -0.347 N 
HETATM    4  C   UNK N   1     168.469 152.887 153.465  0.00  0.00     0.127 C 
HETATM    5  C   UNK N   1     169.107 151.565 153.078  0.00  0.00     0.043 C 
HETATM    6  C   UNK N   1     168.757 150.628 154.222  0.00  0.00     0.143 C 
HETATM    7  C   UNK N   1     168.646 151.522 155.441  0.00  0.00     0.147 C 
ENDROOT
BRANCH   2   8
HETATM    8  C   UNK N   1     167.230 155.091 155.105  0.00  0.00     0.034 A 
HETATM    9  C   UNK N   1     168.103 156.204 154.932  0.00  0.00     0.019 A 
HETATM   10  C   UNK N   1     167.644 157.418 154.385  0.00  0.00     0.034 A 
HETATM   11  C   UNK N   1     166.310 157.479 154.014  0.00  0.00     0.074 A 
HETATM   12  N   UNK N   1     165.629 158.492 153.464  0.00  0.00    -0.282 N 
HETATM   13  C   UNK N   1     165.466 156.434 154.172  0.00  0.00     0.074 A 
HETATM   14  N   UNK N   1     164.382 158.053 153.292  0.00  0.00    -0.022 NA
HETATM   15  H   UNK N   1     165.979 159.383 153.233  0.00  0.00     0.184 HD
HETATM   16  N   UNK N   1     164.258 156.797 153.717  0.00  0.00    -0.282 N 
ATOM     17  HN  UNK N   1     163.413 156.226 153.701  1.00  0.00     0.184 HD
HETATM   18  C   UNK N   1     165.872 155.221 154.715  0.00  0.00     0.050 A 
ENDBRANCH   2   8
BRANCH   6  19
HETATM   19  S   UNK N   1     169.991 149.301 154.387  0.00  0.00     0.215 S 
HETATM   20  O   UNK N   1     171.324 149.703 155.038  0.00  0.00    -0.211 OA
HETATM   21  O   UNK N   1     170.474 148.914 152.981  0.00  0.00    -0.211 OA
BRANCH  19  22
HETATM   22  N   UNK N   1     169.551 147.713 155.064  0.00  0.00    -0.215 NA
HETATM   23  H   UNK N   1     170.295 147.045 154.862  0.00  0.00     0.140 HD
BRANCH  22  24
HETATM   24  C   UNK N   1     169.259 147.687 156.506  0.00  0.00     0.071 A 
HETATM   25  C   UNK N   1     168.274 146.622 156.971  0.00  0.00     0.022 A 
HETATM   26  C   UNK N   1     167.789 148.025 156.702  0.00  0.00     0.022 A 
ENDBRANCH  22  24
ENDBRANCH  19  22
ENDBRANCH   6  19
TORSDOF 4
ENDMDL
MODEL 6
REMARK VINA RESULT:      -6.1      3.037      3.922
REMARK  4 active torsions:
REMARK  status: ('A' for Active; 'I' for Inactive)
REMARK    1  A    between atoms: C_2  and  C_3 
REMARK       I    between atoms: C_2  and  N_13 
REMARK    2  A    between atoms: C_16  and  S_17 
REMARK    3  A    between atoms: S_17  and  N_20 
REMARK    4  A    between atoms: N_20  and  C_21 
ROOT
HETATM    1  O   UNK N   1     166.126 155.804 158.481  0.00  0.00    -0.267 OA
HETATM    2  C   UNK N   1     166.866 156.302 157.642  0.00  0.00     0.253 C 
HETATM    3  N   UNK N   1     167.531 155.474 156.772  0.00  0.00    -0.347 N 
HETATM    4  C   UNK N   1     168.390 155.926 155.712  0.00  0.00     0.127 C 
HETATM    5  C   UNK N   1     168.870 154.655 155.036  0.00  0.00     0.043 C 
HETATM    6  C   UNK N   1     167.853 153.602 155.445  0.00  0.00     0.143 C 
HETATM    7  C   UNK N   1     167.354 154.046 156.805  0.00  0.00     0.147 C 
ENDROOT
BRANCH   2   8
HETATM    8  C   UNK N   1     166.968 157.799 157.598  0.00  0.00     0.034 A 
HETATM    9  C   UNK N   1     167.917 158.522 158.377  0.00  0.00     0.019 A 
HETATM   10  C   UNK N   1     168.015 159.925 158.297  0.00  0.00     0.034 A 
HETATM   11  C   UNK N   1     167.153 160.568 157.422  0.00  0.00     0.074 A 
HETATM   12  N   UNK N   1     167.047 161.874 157.146  0.00  0.00    -0.282 N 
HETATM   13  C   UNK N   1     166.246 159.899 156.676  0.00  0.00     0.074 A 
HETATM   14  N   UNK N   1     166.079 161.985 156.236  0.00  0.00    -0.022 NA
HETATM   15  H   UNK N   1     167.577 162.607 157.536  0.00  0.00     0.184 HD
HETATM   16  N   UNK N   1     165.574 160.790 155.933  0.00  0.00    -0.282 N 
ATOM     17  HN  UNK N   1     164.825 160.592 155.269  1.00  0.00     0.184 HD
HETATM   18  C   UNK N   1     166.109 158.517 156.729  0.00  0.00     0.050 A 
ENDBRANCH   2   8
BRANCH   6  19
HETATM   19  S   UNK N   1     168.588 151.937 155.433  0.00  0.00     0.215 S 
HETATM   20  O   UNK N   1     167.609 150.774 155.210  0.00  0.00    -0.211 OA
HETATM   21  O   UNK N   1     169.082 151.618 156.852  0.00  0.00    -0.211 OA
BRANCH  19  22
HETATM   22  N   UNK N   1     170.037 151.578 154.460  0.00  0.00    -0.215 NA
HETATM   23  H   UNK N   1     170.855 151.567 155.069  0.00  0.00     0.140 HD
BRANCH  22  24
HETATM   24  C   UNK N   1     169.998 150.328 153.685  0.00  0.00     0.071 A 
HETATM   25  C   UNK N   1     171.011 150.211 152.553  0.00  0.00     0.022 A 
HETATM   26  C   UNK N   1     169.603 150.665 152.255  0.00  0.00     0.022 A 
ENDBRANCH  22  24
ENDBRANCH  19  22
ENDBRANCH   6  19
TORSDOF 4
ENDMDL
MODEL 7
REMARK VINA RESULT:      -6.0      3.171      8.574
REMARK  4 active torsions:
REMARK  status: ('A' for Active; 'I' for Inactive)
REMARK    1  A    between atoms: C_2  and  C_3 
REMARK       I    between atoms: C_2  and  N_13 
REMARK    2  A    between atoms: C_16  and  S_17 
REMARK    3  A    between atoms: S_17  and  N_20 
REMARK    4  A    between atoms: N_20  and  C_21 
ROOT
HETATM    1  O   UNK N   1     169.775 154.564 153.460  0.00  0.00    -0.267 OA
HETATM    2  C   UNK N   1     168.839 153.968 153.977  0.00  0.00     0.253 C 
HETATM    3  N   UNK N   1     167.724 154.679 154.344  0.00  0.00    -0.347 N 
HETATM    4  C   UNK N   1     166.538 154.101 154.916  0.00  0.00     0.127 C 
HETATM    5  C   UNK N   1     165.601 155.274 155.131  0.00  0.00     0.043 C 
HETATM    6  C   UNK N   1     166.130 156.356 154.203  0.00  0.00     0.143 C 
HETATM    7  C   UNK N   1     167.620 156.095 154.106  0.00  0.00     0.147 C 
ENDROOT
BRANCH   2   8
HETATM    8  C   UNK N   1     168.961 152.481 154.145  0.00  0.00     0.034 A 
HETATM    9  C   UNK N   1     168.980 151.856 155.426  0.00  0.00     0.019 A 
HETATM   10  C   UNK N   1     169.066 150.457 155.558  0.00  0.00     0.034 A 
HETATM   11  C   UNK N   1     169.123 149.715 154.387  0.00  0.00     0.074 A 
HETATM   12  N   UNK N   1     169.194 148.387 154.230  0.00  0.00    -0.282 N 
HETATM   13  C   UNK N   1     169.108 150.291 153.164  0.00  0.00     0.074 A 
HETATM   14  N   UNK N   1     169.219 148.170 152.914  0.00  0.00    -0.022 NA
HETATM   15  H   UNK N   1     169.222 147.708 154.941  0.00  0.00     0.184 HD
HETATM   16  N   UNK N   1     169.168 149.319 152.243  0.00  0.00    -0.282 N 
ATOM     17  HN  UNK N   1     169.173 149.436 151.229  1.00  0.00     0.184 HD
HETATM   18  C   UNK N   1     169.033 151.667 152.987  0.00  0.00     0.050 A 
ENDBRANCH   2   8
BRANCH   6  19
HETATM   19  S   UNK N   1     165.707 158.016 154.818  0.00  0.00     0.215 S 
HETATM   20  O   UNK N   1     164.246 158.219 155.249  0.00  0.00    -0.211 OA
HETATM   21  O   UNK N   1     165.791 159.001 153.643  0.00  0.00    -0.211 OA
BRANCH  19  22
HETATM   22  N   UNK N   1     166.717 158.829 156.041  0.00  0.00    -0.215 NA
HETATM   23  H   UNK N   1     167.488 159.306 155.574  0.00  0.00     0.140 HD
BRANCH  22  24
HETATM   24  C   UNK N   1     166.021 159.783 156.918  0.00  0.00     0.071 A 
HETATM   25  C   UNK N   1     166.202 161.257 156.581  0.00  0.00     0.022 A 
HETATM   26  C   UNK N   1     167.068 160.619 157.639  0.00  0.00     0.022 A 
ENDBRANCH  22  24
ENDBRANCH  19  22
ENDBRANCH   6  19
TORSDOF 4
ENDMDL
MODEL 8
REMARK VINA RESULT:      -5.9      3.495      4.889
REMARK  4 active torsions:
REMARK  status: ('A' for Active; 'I' for Inactive)
REMARK    1  A    between atoms: C_2  and  C_3 
REMARK       I    between atoms: C_2  and  N_13 
REMARK    2  A    between atoms: C_16  and  S_17 
REMARK    3  A    between atoms: S_17  and  N_20 
REMARK    4  A    between atoms: N_20  and  C_21 
ROOT
HETATM    1  O   UNK N   1     164.596 152.847 156.712  0.00  0.00    -0.267 OA
HETATM    2  C   UNK N   1     164.585 154.070 156.652  0.00  0.00     0.253 C 
HETATM    3  N   UNK N   1     165.506 154.701 155.855  0.00  0.00    -0.347 N 
HETATM    4  C   UNK N   1     165.575 156.123 155.655  0.00  0.00     0.127 C 
HETATM    5  C   UNK N   1     166.735 156.324 154.697  0.00  0.00     0.043 C 
HETATM    6  C   UNK N   1     166.916 154.968 154.034  0.00  0.00     0.143 C 
HETATM    7  C   UNK N   1     166.459 153.961 155.070  0.00  0.00     0.147 C 
ENDROOT
BRANCH   2   8
HETATM    8  C   UNK N   1     163.531 154.800 157.432  0.00  0.00     0.034 A 
HETATM    9  C   UNK N   1     163.592 154.943 158.849  0.00  0.00     0.019 A 
HETATM   10  C   UNK N   1     162.606 155.658 159.557  0.00  0.00     0.034 A 
HETATM   11  C   UNK N   1     161.581 156.223 158.815  0.00  0.00     0.074 A 
HETATM   12  N   UNK N   1     160.539 156.955 159.229  0.00  0.00    -0.282 N 
HETATM   13  C   UNK N   1     161.506 156.096 157.470  0.00  0.00     0.074 A 
HETATM   14  N   UNK N   1     159.844 157.267 158.135  0.00  0.00    -0.022 NA
HETATM   15  H   UNK N   1     160.329 157.211 160.156  0.00  0.00     0.184 HD
HETATM   16  N   UNK N   1     160.416 156.753 157.048  0.00  0.00    -0.282 N 
ATOM     17  HN  UNK N   1     160.090 156.841 156.085  1.00  0.00     0.184 HD
HETATM   18  C   UNK N   1     162.450 155.394 156.732  0.00  0.00     0.050 A 
ENDBRANCH   2   8
BRANCH   6  19
HETATM   19  S   UNK N   1     168.632 154.732 153.477  0.00  0.00     0.215 S 
HETATM   20  O   UNK N   1     169.490 156.004 153.393  0.00  0.00    -0.211 OA
HETATM   21  O   UNK N   1     168.605 154.316 151.998  0.00  0.00    -0.211 OA
BRANCH  19  22
HETATM   22  N   UNK N   1     169.664 153.465 154.187  0.00  0.00    -0.215 NA
HETATM   23  H   UNK N   1     169.600 153.514 155.204  0.00  0.00     0.140 HD
BRANCH  22  24
HETATM   24  C   UNK N   1     169.385 152.088 153.751  0.00  0.00     0.071 A 
HETATM   25  C   UNK N   1     169.724 150.989 154.750  0.00  0.00     0.022 A 
HETATM   26  C   UNK N   1     170.706 151.339 153.659  0.00  0.00     0.022 A 
ENDBRANCH  22  24
ENDBRANCH  19  22
ENDBRANCH   6  19
TORSDOF 4
ENDMDL
MODEL 9
REMARK VINA RESULT:      -5.8      3.868      8.531
REMARK  4 active torsions:
REMARK  status: ('A' for Active; 'I' for Inactive)
REMARK    1  A    between atoms: C_2  and  C_3 
REMARK       I    between atoms: C_2  and  N_13 
REMARK    2  A    between atoms: C_16  and  S_17 
REMARK    3  A    between atoms: S_17  and  N_20 
REMARK    4  A    between atoms: N_20  and  C_21 
ROOT
HETATM    1  O   UNK N   1     168.449 157.146 153.267  0.00  0.00    -0.267 OA
HETATM    2  C   UNK N   1     167.647 156.240 153.452  0.00  0.00     0.253 C 
HETATM    3  N   UNK N   1     166.617 156.440 154.337  0.00  0.00    -0.347 N 
HETATM    4  C   UNK N   1     165.581 155.482 154.613  0.00  0.00     0.127 C 
HETATM    5  C   UNK N   1     164.687 156.162 155.634  0.00  0.00     0.043 C 
HETATM    6  C   UNK N   1     165.001 157.642 155.483  0.00  0.00     0.143 C 
HETATM    7  C   UNK N   1     166.444 157.693 155.024  0.00  0.00     0.147 C 
ENDROOT
BRANCH   2   8
HETATM    8  C   UNK N   1     167.824 154.975 152.665  0.00  0.00     0.034 A 
HETATM    9  C   UNK N   1     168.541 153.853 153.174  0.00  0.00     0.019 A 
HETATM   10  C   UNK N   1     168.669 152.665 152.428  0.00  0.00     0.034 A 
HETATM   11  C   UNK N   1     168.062 152.633 151.183  0.00  0.00     0.074 A 
HETATM   12  N   UNK N   1     168.018 151.638 150.288  0.00  0.00    -0.282 N 
HETATM   13  C   UNK N   1     167.380 153.688 150.683  0.00  0.00     0.074 A 
HETATM   14  N   UNK N   1     167.310 152.097 149.256  0.00  0.00    -0.022 NA
HETATM   15  H   UNK N   1     168.427 150.746 150.374  0.00  0.00     0.184 HD
HETATM   16  N   UNK N   1     166.909 153.348 149.474  0.00  0.00    -0.282 N 
ATOM     17  HN  UNK N   1     166.355 153.932 148.847  1.00  0.00     0.184 HD
HETATM   18  C   UNK N   1     167.235 154.881 151.379  0.00  0.00     0.050 A 
ENDBRANCH   2   8
BRANCH   6  19
HETATM   19  S   UNK N   1     164.684 158.543 157.032  0.00  0.00     0.215 S 
HETATM   20  O   UNK N   1     163.681 157.888 157.995  0.00  0.00    -0.211 OA
HETATM   21  O   UNK N   1     163.936 159.841 156.691  0.00  0.00    -0.211 OA
BRANCH  19  22
HETATM   22  N   UNK N   1     166.026 159.155 158.032  0.00  0.00    -0.215 NA
HETATM   23  H   UNK N   1     166.900 158.742 157.707  0.00  0.00     0.140 HD
BRANCH  22  24
HETATM   24  C   UNK N   1     166.174 160.618 158.084  0.00  0.00     0.071 A 
HETATM   25  C   UNK N   1     167.311 161.205 157.257  0.00  0.00     0.022 A 
HETATM   26  C   UNK N   1     167.514 160.939 158.729  0.00  0.00     0.022 A 
ENDBRANCH  22  24
ENDBRANCH  19  22
ENDBRANCH   6  19
TORSDOF 4
ENDMDL
