MODEL 1
REMARK VINA RESULT:      -7.4      0.000      0.000
REMARK  5 active torsions:
REMARK  status: ('A' for Active; 'I' for Inactive)
REMARK    1  A    between atoms: O_2  and  C_3 
REMARK    2  A    between atoms: C_5  and  C_3 
REMARK    3  A    between atoms: C_7  and  C_8 
REMARK       I    between atoms: N_15  and  C_16 
REMARK    4  A    between atoms: C_16  and  C_18 
REMARK    5  A    between atoms: C_18  and  N_19 
ROOT
HETATM    1  C   UNK N   1     168.930 149.138 155.261  0.00  0.00     0.104 C 
HETATM    2  C   UNK N   1     168.843 148.964 153.736  0.00  0.00     0.027 C 
HETATM    3  C   UNK N   1     170.110 149.440 153.009  0.00  0.00     0.037 C 
HETATM    4  C   UNK N   1     170.422 150.908 153.347  0.00  0.00     0.135 C 
HETATM    5  N   UNK N   1     169.760 151.343 154.561  0.00  0.00    -0.349 N 
HETATM    6  C   UNK N   1     169.211 152.589 154.641  0.00  0.00     0.239 C 
HETATM    7  O   UNK N   1     168.612 152.935 155.650  0.00  0.00    -0.271 OA
HETATM    8  C   UNK N   1     169.670 150.419 155.672  0.00  0.00     0.140 C 
ENDROOT
BRANCH   6   9
HETATM    9  C   UNK N   1     169.352 153.571 153.513  0.00  0.00     0.257 C 
BRANCH   9  10
HETATM   10  N   UNK N   1     168.355 154.621 153.674  0.00  0.00    -0.232 N 
HETATM   11  N   UNK N   1     167.054 154.415 153.854  0.00  0.00    -0.278 N 
HETATM   12  C   UNK N   1     166.482 155.640 153.902  0.00  0.00     0.130 A 
ATOM     13  HN  UNK N   1     166.582 153.515 153.938  1.00  0.00     0.189 HD
HETATM   14  C   UNK N   1     165.132 155.931 154.061  0.00  0.00     0.050 A 
HETATM   15  N   UNK N   1     167.393 156.617 153.757  0.00  0.00    -0.258 N 
HETATM   16  C   UNK N   1     164.763 157.288 154.067  0.00  0.00     0.005 A 
HETATM   17  C   UNK N   1     165.739 158.297 153.913  0.00  0.00     0.018 A 
HETATM   18  C   UNK N   1     167.086 157.938 153.755  0.00  0.00     0.103 A 
HETATM   19  C   UNK N   1     168.564 155.962 153.616  0.00  0.00     0.349 A 
HETATM   20  O   UNK N   1     169.647 156.494 153.447  0.00  0.00    -0.244 OA
ENDBRANCH   9  10
ENDBRANCH   6   9
BRANCH   3  21
HETATM   21  C   UNK N   1     169.997 149.266 151.512  0.00  0.00    -0.052 A 
HETATM   22  C   UNK N   1     171.055 149.618 150.654  0.00  0.00     0.007 A 
HETATM   23  C   UNK N   1     170.942 149.433 149.275  0.00  0.00     0.001 A 
HETATM   24  C   UNK N   1     169.776 148.882 148.739  0.00  0.00     0.000 A 
HETATM   25  C   UNK N   1     168.717 148.531 149.580  0.00  0.00     0.001 A 
HETATM   26  C   UNK N   1     168.823 148.730 150.960  0.00  0.00     0.007 A 
ENDBRANCH   3  21
BRANCH   1  27
HETATM   27  C   UNK N   1     167.569 149.112 155.900  0.00  0.00     0.264 C 
HETATM   28  O   UNK N   1     166.675 149.842 155.488  0.00  0.00    -0.265 OA
BRANCH  27  29
HETATM   29  O   UNK N   1     167.343 148.269 156.937  0.00  0.00    -0.326 OA
HETATM   30  C   UNK N   1     167.772 146.963 156.929  0.00  0.00     0.213 C 
ENDBRANCH  27  29
ENDBRANCH   1  27
TORSDOF 5
ENDMDL
MODEL 2
REMARK VINA RESULT:      -7.2      3.750      5.185
REMARK  5 active torsions:
REMARK  status: ('A' for Active; 'I' for Inactive)
REMARK    1  A    between atoms: O_2  and  C_3 
REMARK    2  A    between atoms: C_5  and  C_3 
REMARK    3  A    between atoms: C_7  and  C_8 
REMARK       I    between atoms: N_15  and  C_16 
REMARK    4  A    between atoms: C_16  and  C_18 
REMARK    5  A    between atoms: C_18  and  N_19 
ROOT
HETATM    1  C   UNK N   1     168.608 153.328 154.814  0.00  0.00     0.104 C 
HETATM    2  C   UNK N   1     168.172 153.025 153.372  0.00  0.00     0.027 C 
HETATM    3  C   UNK N   1     167.957 154.295 152.535  0.00  0.00     0.037 C 
HETATM    4  C   UNK N   1     166.933 155.230 153.202  0.00  0.00     0.135 C 
HETATM    5  N   UNK N   1     166.761 154.937 154.611  0.00  0.00    -0.349 N 
HETATM    6  C   UNK N   1     165.523 154.976 155.180  0.00  0.00     0.239 C 
HETATM    7  O   UNK N   1     165.376 154.682 156.358  0.00  0.00    -0.271 OA
HETATM    8  C   UNK N   1     167.926 154.576 155.392  0.00  0.00     0.140 C 
ENDROOT
BRANCH   6   9
HETATM    9  C   UNK N   1     164.321 155.406 154.389  0.00  0.00     0.257 C 
BRANCH   9  10
HETATM   10  N   UNK N   1     163.345 155.995 155.296  0.00  0.00    -0.232 N 
HETATM   11  N   UNK N   1     162.462 155.308 156.015  0.00  0.00    -0.278 N 
HETATM   12  C   UNK N   1     161.716 156.226 156.673  0.00  0.00     0.130 A 
ATOM     13  HN  UNK N   1     162.367 154.294 156.062  1.00  0.00     0.189 HD
HETATM   14  C   UNK N   1     160.656 155.983 157.538  0.00  0.00     0.050 A 
HETATM   15  N   UNK N   1     162.108 157.479 156.385  0.00  0.00    -0.258 N 
HETATM   16  C   UNK N   1     160.014 157.102 158.098  0.00  0.00     0.005 A 
HETATM   17  C   UNK N   1     160.444 158.408 157.781  0.00  0.00     0.018 A 
HETATM   18  C   UNK N   1     161.522 158.588 156.900  0.00  0.00     0.103 A 
HETATM   19  C   UNK N   1     163.131 157.317 155.521  0.00  0.00     0.349 A 
HETATM   20  O   UNK N   1     163.761 158.224 155.007  0.00  0.00    -0.244 OA
ENDBRANCH   9  10
ENDBRANCH   6   9
BRANCH   3  21
HETATM   21  C   UNK N   1     167.520 153.972 151.124  0.00  0.00    -0.052 A 
HETATM   22  C   UNK N   1     168.054 152.872 150.428  0.00  0.00     0.007 A 
HETATM   23  C   UNK N   1     167.627 152.575 149.133  0.00  0.00     0.001 A 
HETATM   24  C   UNK N   1     166.651 153.366 148.524  0.00  0.00     0.000 A 
HETATM   25  C   UNK N   1     166.115 154.463 149.203  0.00  0.00     0.001 A 
HETATM   26  C   UNK N   1     166.554 154.770 150.494  0.00  0.00     0.007 A 
ENDBRANCH   3  21
BRANCH   1  27
HETATM   27  C   UNK N   1     168.370 152.153 155.723  0.00  0.00     0.264 C 
HETATM   28  O   UNK N   1     169.003 152.038 156.767  0.00  0.00    -0.265 OA
BRANCH  27  29
HETATM   29  O   UNK N   1     167.447 151.225 155.375  0.00  0.00    -0.326 OA
HETATM   30  C   UNK N   1     167.756 149.892 155.245  0.00  0.00     0.213 C 
ENDBRANCH  27  29
ENDBRANCH   1  27
TORSDOF 5
ENDMDL
MODEL 3
REMARK VINA RESULT:      -7.0      3.334      8.842
REMARK  5 active torsions:
REMARK  status: ('A' for Active; 'I' for Inactive)
REMARK    1  A    between atoms: O_2  and  C_3 
REMARK    2  A    between atoms: C_5  and  C_3 
REMARK    3  A    between atoms: C_7  and  C_8 
REMARK       I    between atoms: N_15  and  C_16 
REMARK    4  A    between atoms: C_16  and  C_18 
REMARK    5  A    between atoms: C_18  and  N_19 
ROOT
HETATM    1  C   UNK N   1     167.315 157.707 154.559  0.00  0.00     0.104 C 
HETATM    2  C   UNK N   1     167.071 157.628 156.075  0.00  0.00     0.027 C 
HETATM    3  C   UNK N   1     168.292 157.109 156.849  0.00  0.00     0.037 C 
HETATM    4  C   UNK N   1     168.735 155.733 156.322  0.00  0.00     0.135 C 
HETATM    5  N   UNK N   1     168.224 155.465 154.992  0.00  0.00    -0.349 N 
HETATM    6  C   UNK N   1     167.773 154.222 154.662  0.00  0.00     0.239 C 
HETATM    7  O   UNK N   1     167.298 154.012 153.554  0.00  0.00    -0.271 OA
HETATM    8  C   UNK N   1     168.178 156.551 154.034  0.00  0.00     0.140 C 
ENDROOT
BRANCH   6   9
HETATM    9  C   UNK N   1     167.873 153.079 155.632  0.00  0.00     0.257 C 
BRANCH   9  10
HETATM   10  N   UNK N   1     168.529 151.957 154.974  0.00  0.00    -0.232 N 
HETATM   11  N   UNK N   1     169.633 152.045 154.238  0.00  0.00    -0.278 N 
HETATM   12  C   UNK N   1     169.874 150.798 153.770  0.00  0.00     0.130 A 
ATOM     13  HN  UNK N   1     170.186 152.883 154.061  1.00  0.00     0.189 HD
HETATM   14  C   UNK N   1     170.916 150.400 152.941  0.00  0.00     0.050 A 
HETATM   15  N   UNK N   1     168.947 149.924 154.194  0.00  0.00    -0.258 N 
HETATM   16  C   UNK N   1     170.958 149.044 152.568  0.00  0.00     0.005 A 
HETATM   17  C   UNK N   1     169.972 148.144 153.027  0.00  0.00     0.018 A 
HETATM   18  C   UNK N   1     168.945 148.609 153.863  0.00  0.00     0.103 A 
HETATM   19  C   UNK N   1     168.110 150.666 154.949  0.00  0.00     0.349 A 
HETATM   20  O   UNK N   1     167.118 150.242 155.514  0.00  0.00    -0.244 OA
ENDBRANCH   9  10
ENDBRANCH   6   9
BRANCH   3  21
HETATM   21  C   UNK N   1     168.024 157.032 158.334  0.00  0.00    -0.052 A 
HETATM   22  C   UNK N   1     168.813 156.230 159.179  0.00  0.00     0.007 A 
HETATM   23  C   UNK N   1     168.565 156.185 160.551  0.00  0.00     0.001 A 
HETATM   24  C   UNK N   1     167.534 156.952 161.098  0.00  0.00     0.000 A 
HETATM   25  C   UNK N   1     166.741 157.751 160.270  0.00  0.00     0.001 A 
HETATM   26  C   UNK N   1     166.979 157.784 158.893  0.00  0.00     0.007 A 
ENDBRANCH   3  21
BRANCH   1  27
HETATM   27  C   UNK N   1     166.022 157.764 153.792  0.00  0.00     0.264 C 
HETATM   28  O   UNK N   1     165.552 158.842 153.447  0.00  0.00    -0.265 OA
BRANCH  27  29
HETATM   29  O   UNK N   1     165.386 156.608 153.484  0.00  0.00    -0.326 OA
HETATM   30  C   UNK N   1     164.219 156.224 154.102  0.00  0.00     0.213 C 
ENDBRANCH  27  29
ENDBRANCH   1  27
TORSDOF 5
ENDMDL
MODEL 4
REMARK VINA RESULT:      -6.9      3.096      4.451
REMARK  5 active torsions:
REMARK  status: ('A' for Active; 'I' for Inactive)
REMARK    1  A    between atoms: O_2  and  C_3 
REMARK    2  A    between atoms: C_5  and  C_3 
REMARK    3  A    between atoms: C_7  and  C_8 
REMARK       I    between atoms: N_15  and  C_16 
REMARK    4  A    between atoms: C_16  and  C_18 
REMARK    5  A    between atoms: C_18  and  N_19 
ROOT
HETATM    1  C   UNK N   1     168.901 152.310 154.949  0.00  0.00     0.104 C 
HETATM    2  C   UNK N   1     168.376 152.282 153.505  0.00  0.00     0.027 C 
HETATM    3  C   UNK N   1     168.343 153.674 152.855  0.00  0.00     0.037 C 
HETATM    4  C   UNK N   1     167.505 154.655 153.694  0.00  0.00     0.135 C 
HETATM    5  N   UNK N   1     167.334 154.200 155.059  0.00  0.00    -0.349 N 
HETATM    6  C   UNK N   1     166.137 154.352 155.694  0.00  0.00     0.239 C 
HETATM    7  O   UNK N   1     165.982 153.925 156.829  0.00  0.00    -0.271 OA
HETATM    8  C   UNK N   1     168.450 153.557 155.722  0.00  0.00     0.140 C 
ENDROOT
BRANCH   6   9
HETATM    9  C   UNK N   1     164.996 155.070 155.031  0.00  0.00     0.257 C 
BRANCH   9  10
HETATM   10  N   UNK N   1     164.930 156.431 155.549  0.00  0.00    -0.232 N 
HETATM   11  N   UNK N   1     165.886 157.345 155.413  0.00  0.00    -0.278 N 
HETATM   12  C   UNK N   1     165.455 158.442 156.078  0.00  0.00     0.130 A 
ATOM     13  HN  UNK N   1     166.766 157.241 154.909  1.00  0.00     0.189 HD
HETATM   14  C   UNK N   1     166.126 159.650 156.227  0.00  0.00     0.050 A 
HETATM   15  N   UNK N   1     164.248 158.241 156.632  0.00  0.00    -0.258 N 
HETATM   16  C   UNK N   1     165.486 160.652 156.979  0.00  0.00     0.005 A 
HETATM   17  C   UNK N   1     164.217 160.418 157.552  0.00  0.00     0.018 A 
HETATM   18  C   UNK N   1     163.592 159.175 157.365  0.00  0.00     0.103 A 
HETATM   19  C   UNK N   1     163.931 156.975 156.291  0.00  0.00     0.349 A 
HETATM   20  O   UNK N   1     162.906 156.400 156.612  0.00  0.00    -0.244 OA
ENDBRANCH   9  10
ENDBRANCH   6   9
BRANCH   3  21
HETATM   21  C   UNK N   1     167.815 153.621 151.440  0.00  0.00    -0.052 A 
HETATM   22  C   UNK N   1     168.143 152.559 150.577  0.00  0.00     0.007 A 
HETATM   23  C   UNK N   1     167.632 152.515 149.279  0.00  0.00     0.001 A 
HETATM   24  C   UNK N   1     166.777 153.524 148.832  0.00  0.00     0.000 A 
HETATM   25  C   UNK N   1     166.446 154.586 149.678  0.00  0.00     0.001 A 
HETATM   26  C   UNK N   1     166.970 154.639 150.974  0.00  0.00     0.007 A 
ENDBRANCH   3  21
BRANCH   1  27
HETATM   27  C   UNK N   1     168.506 151.073 155.707  0.00  0.00     0.264 C 
HETATM   28  O   UNK N   1     169.202 150.660 156.628  0.00  0.00    -0.265 OA
BRANCH  27  29
HETATM   29  O   UNK N   1     167.370 150.421 155.360  0.00  0.00    -0.326 OA
HETATM   30  C   UNK N   1     167.342 149.066 155.125  0.00  0.00     0.213 C 
ENDBRANCH  27  29
ENDBRANCH   1  27
TORSDOF 5
ENDMDL
MODEL 5
REMARK VINA RESULT:      -6.9      3.830      8.406
REMARK  5 active torsions:
REMARK  status: ('A' for Active; 'I' for Inactive)
REMARK    1  A    between atoms: O_2  and  C_3 
REMARK    2  A    between atoms: C_5  and  C_3 
REMARK    3  A    between atoms: C_7  and  C_8 
REMARK       I    between atoms: N_15  and  C_16 
REMARK    4  A    between atoms: C_16  and  C_18 
REMARK    5  A    between atoms: C_18  and  N_19 
ROOT
HETATM    1  C   UNK N   1     163.775 155.815 157.610  0.00  0.00     0.104 C 
HETATM    2  C   UNK N   1     164.766 156.937 157.957  0.00  0.00     0.027 C 
HETATM    3  C   UNK N   1     165.050 157.869 156.769  0.00  0.00     0.037 C 
HETATM    4  C   UNK N   1     165.566 157.076 155.556  0.00  0.00     0.135 C 
HETATM    5  N   UNK N   1     165.245 155.666 155.647  0.00  0.00    -0.349 N 
HETATM    6  C   UNK N   1     166.152 154.724 155.259  0.00  0.00     0.239 C 
HETATM    7  O   UNK N   1     165.895 153.534 155.381  0.00  0.00    -0.271 OA
HETATM    8  C   UNK N   1     163.956 155.280 156.183  0.00  0.00     0.140 C 
ENDROOT
BRANCH   6   9
HETATM    9  C   UNK N   1     167.466 155.120 154.649  0.00  0.00     0.257 C 
BRANCH   9  10
HETATM   10  N   UNK N   1     167.504 154.653 153.269  0.00  0.00    -0.232 N 
HETATM   11  N   UNK N   1     166.891 155.243 152.248  0.00  0.00    -0.278 N 
HETATM   12  C   UNK N   1     167.134 154.468 151.164  0.00  0.00     0.130 A 
ATOM     13  HN  UNK N   1     166.348 156.105 152.274  1.00  0.00     0.189 HD
HETATM   14  C   UNK N   1     166.682 154.675 149.866  0.00  0.00     0.050 A 
HETATM   15  N   UNK N   1     167.887 153.401 151.479  0.00  0.00    -0.258 N 
HETATM   16  C   UNK N   1     167.050 153.723 148.898  0.00  0.00     0.005 A 
HETATM   17  C   UNK N   1     167.843 152.610 149.253  0.00  0.00     0.018 A 
HETATM   18  C   UNK N   1     168.267 152.458 150.582  0.00  0.00     0.103 A 
HETATM   19  C   UNK N   1     168.113 153.532 152.803  0.00  0.00     0.349 A 
HETATM   20  O   UNK N   1     168.755 152.751 153.482  0.00  0.00    -0.244 OA
ENDBRANCH   9  10
ENDBRANCH   6   9
BRANCH   3  21
HETATM   21  C   UNK N   1     166.034 158.958 157.133  0.00  0.00    -0.052 A 
HETATM   22  C   UNK N   1     165.939 160.245 156.573  0.00  0.00     0.007 A 
HETATM   23  C   UNK N   1     166.843 161.245 156.933  0.00  0.00     0.001 A 
HETATM   24  C   UNK N   1     167.845 160.974 157.867  0.00  0.00     0.000 A 
HETATM   25  C   UNK N   1     167.952 159.699 158.429  0.00  0.00     0.001 A 
HETATM   26  C   UNK N   1     167.055 158.692 158.057  0.00  0.00     0.007 A 
ENDBRANCH   3  21
BRANCH   1  27
HETATM   27  C   UNK N   1     163.858 154.678 158.592  0.00  0.00     0.264 C 
HETATM   28  O   UNK N   1     164.268 153.579 158.236  0.00  0.00    -0.265 OA
BRANCH  27  29
HETATM   29  O   UNK N   1     163.476 154.885 159.875  0.00  0.00    -0.326 OA
HETATM   30  C   UNK N   1     164.328 154.689 160.937  0.00  0.00     0.213 C 
ENDBRANCH  27  29
ENDBRANCH   1  27
TORSDOF 5
ENDMDL
MODEL 6
REMARK VINA RESULT:      -6.8      3.428      8.974
REMARK  5 active torsions:
REMARK  status: ('A' for Active; 'I' for Inactive)
REMARK    1  A    between atoms: O_2  and  C_3 
REMARK    2  A    between atoms: C_5  and  C_3 
REMARK    3  A    between atoms: C_7  and  C_8 
REMARK       I    between atoms: N_15  and  C_16 
REMARK    4  A    between atoms: C_16  and  C_18 
REMARK    5  A    between atoms: C_18  and  N_19 
ROOT
HETATM    1  C   UNK N   1     163.467 156.915 155.410  0.00  0.00     0.104 C 
HETATM    2  C   UNK N   1     164.319 157.792 156.341  0.00  0.00     0.027 C 
HETATM    3  C   UNK N   1     165.705 158.107 155.759  0.00  0.00     0.037 C 
HETATM    4  C   UNK N   1     166.469 156.815 155.419  0.00  0.00     0.135 C 
HETATM    5  N   UNK N   1     165.585 155.673 155.297  0.00  0.00    -0.349 N 
HETATM    6  C   UNK N   1     165.953 154.457 155.791  0.00  0.00     0.239 C 
HETATM    7  O   UNK N   1     165.186 153.507 155.728  0.00  0.00    -0.271 OA
HETATM    8  C   UNK N   1     164.295 155.858 154.665  0.00  0.00     0.140 C 
ENDROOT
BRANCH   6   9
HETATM    9  C   UNK N   1     167.313 154.247 156.395  0.00  0.00     0.257 C 
BRANCH   9  10
HETATM   10  N   UNK N   1     168.048 153.289 155.579  0.00  0.00    -0.232 N 
HETATM   11  N   UNK N   1     168.016 153.236 154.251  0.00  0.00    -0.278 N 
HETATM   12  C   UNK N   1     168.785 152.180 153.897  0.00  0.00     0.130 A 
ATOM     13  HN  UNK N   1     167.514 153.865 153.625  1.00  0.00     0.189 HD
HETATM   14  C   UNK N   1     169.040 151.721 152.611  0.00  0.00     0.050 A 
HETATM   15  N   UNK N   1     169.302 151.563 154.973  0.00  0.00    -0.258 N 
HETATM   16  C   UNK N   1     169.863 150.587 152.484  0.00  0.00     0.005 A 
HETATM   17  C   UNK N   1     170.395 149.956 153.630  0.00  0.00     0.018 A 
HETATM   18  C   UNK N   1     170.100 150.469 154.902  0.00  0.00     0.103 A 
HETATM   19  C   UNK N   1     168.831 152.271 156.021  0.00  0.00     0.349 A 
HETATM   20  O   UNK N   1     169.064 152.025 157.191  0.00  0.00    -0.244 OA
ENDBRANCH   9  10
ENDBRANCH   6   9
BRANCH   3  21
HETATM   21  C   UNK N   1     166.527 158.963 156.696  0.00  0.00    -0.052 A 
HETATM   22  C   UNK N   1     167.398 158.386 157.638  0.00  0.00     0.007 A 
HETATM   23  C   UNK N   1     168.164 159.191 158.483  0.00  0.00     0.001 A 
HETATM   24  C   UNK N   1     168.078 160.581 158.388  0.00  0.00     0.000 A 
HETATM   25  C   UNK N   1     167.214 161.167 157.459  0.00  0.00     0.001 A 
HETATM   26  C   UNK N   1     166.435 160.361 156.622  0.00  0.00     0.007 A 
ENDBRANCH   3  21
BRANCH   1  27
HETATM   27  C   UNK N   1     162.343 156.247 156.153  0.00  0.00     0.264 C 
HETATM   28  O   UNK N   1     162.138 155.045 156.019  0.00  0.00    -0.265 OA
BRANCH  27  29
HETATM   29  O   UNK N   1     161.561 156.989 156.974  0.00  0.00    -0.326 OA
HETATM   30  C   UNK N   1     160.418 156.489 157.552  0.00  0.00     0.213 C 
ENDBRANCH  27  29
ENDBRANCH   1  27
TORSDOF 5
ENDMDL
MODEL 7
REMARK VINA RESULT:      -6.6      5.420      8.496
REMARK  5 active torsions:
REMARK  status: ('A' for Active; 'I' for Inactive)
REMARK    1  A    between atoms: O_2  and  C_3 
REMARK    2  A    between atoms: C_5  and  C_3 
REMARK    3  A    between atoms: C_7  and  C_8 
REMARK       I    between atoms: N_15  and  C_16 
REMARK    4  A    between atoms: C_16  and  C_18 
REMARK    5  A    between atoms: C_18  and  N_19 
ROOT
HETATM    1  C   UNK N   1     166.193 155.421 160.647  0.00  0.00     0.104 C 
HETATM    2  C   UNK N   1     166.704 156.639 159.861  0.00  0.00     0.027 C 
HETATM    3  C   UNK N   1     165.582 157.617 159.481  0.00  0.00     0.037 C 
HETATM    4  C   UNK N   1     164.478 156.906 158.679  0.00  0.00     0.135 C 
HETATM    5  N   UNK N   1     164.515 155.468 158.852  0.00  0.00    -0.349 N 
HETATM    6  C   UNK N   1     164.293 154.637 157.793  0.00  0.00     0.239 C 
HETATM    7  O   UNK N   1     164.372 153.425 157.934  0.00  0.00    -0.271 OA
HETATM    8  C   UNK N   1     164.820 154.934 160.164  0.00  0.00     0.140 C 
ENDROOT
BRANCH   6   9
HETATM    9  C   UNK N   1     163.919 155.185 156.446  0.00  0.00     0.257 C 
BRANCH   9  10
HETATM   10  N   UNK N   1     165.136 155.539 155.727  0.00  0.00    -0.232 N 
HETATM   11  N   UNK N   1     166.323 154.970 155.912  0.00  0.00    -0.278 N 
HETATM   12  C   UNK N   1     167.184 155.621 155.095  0.00  0.00     0.130 A 
ATOM     13  HN  UNK N   1     166.541 154.199 156.542  1.00  0.00     0.189 HD
HETATM   14  C   UNK N   1     168.546 155.386 154.953  0.00  0.00     0.050 A 
HETATM   15  N   UNK N   1     166.566 156.589 154.397  0.00  0.00    -0.258 N 
HETATM   16  C   UNK N   1     169.248 156.203 154.048  0.00  0.00     0.005 A 
HETATM   17  C   UNK N   1     168.578 157.214 153.325  0.00  0.00     0.018 A 
HETATM   18  C   UNK N   1     167.200 157.400 153.514  0.00  0.00     0.103 A 
HETATM   19  C   UNK N   1     165.281 156.525 154.804  0.00  0.00     0.349 A 
HETATM   20  O   UNK N   1     164.387 157.253 154.411  0.00  0.00    -0.244 OA
ENDBRANCH   9  10
ENDBRANCH   6   9
BRANCH   3  21
HETATM   21  C   UNK N   1     166.108 158.800 158.702  0.00  0.00    -0.052 A 
HETATM   22  C   UNK N   1     166.944 159.758 159.304  0.00  0.00     0.007 A 
HETATM   23  C   UNK N   1     167.437 160.835 158.565  0.00  0.00     0.001 A 
HETATM   24  C   UNK N   1     167.112 160.960 157.213  0.00  0.00     0.000 A 
HETATM   25  C   UNK N   1     166.280 160.017 156.604  0.00  0.00     0.001 A 
HETATM   26  C   UNK N   1     165.773 158.946 157.347  0.00  0.00     0.007 A 
ENDBRANCH   3  21
BRANCH   1  27
HETATM   27  C   UNK N   1     167.177 154.284 160.609  0.00  0.00     0.264 C 
HETATM   28  O   UNK N   1     167.546 153.817 159.537  0.00  0.00    -0.265 OA
BRANCH  27  29
HETATM   29  O   UNK N   1     167.651 153.783 161.775  0.00  0.00    -0.326 OA
HETATM   30  C   UNK N   1     166.998 152.793 162.470  0.00  0.00     0.213 C 
ENDBRANCH  27  29
ENDBRANCH   1  27
TORSDOF 5
ENDMDL
MODEL 8
REMARK VINA RESULT:      -6.6      5.140      8.944
REMARK  5 active torsions:
REMARK  status: ('A' for Active; 'I' for Inactive)
REMARK    1  A    between atoms: O_2  and  C_3 
REMARK    2  A    between atoms: C_5  and  C_3 
REMARK    3  A    between atoms: C_7  and  C_8 
REMARK       I    between atoms: N_15  and  C_16 
REMARK    4  A    between atoms: C_16  and  C_18 
REMARK    5  A    between atoms: C_18  and  N_19 
ROOT
HETATM    1  C   UNK N   1     163.923 156.122 159.555  0.00  0.00     0.104 C 
HETATM    2  C   UNK N   1     165.032 157.124 159.198  0.00  0.00     0.027 C 
HETATM    3  C   UNK N   1     164.485 158.442 158.630  0.00  0.00     0.037 C 
HETATM    4  C   UNK N   1     163.599 158.188 157.398  0.00  0.00     0.135 C 
HETATM    5  N   UNK N   1     163.131 156.817 157.334  0.00  0.00    -0.349 N 
HETATM    6  C   UNK N   1     163.078 156.159 156.141  0.00  0.00     0.239 C 
HETATM    7  O   UNK N   1     162.727 154.988 156.098  0.00  0.00    -0.271 OA
HETATM    8  C   UNK N   1     162.750 156.156 158.565  0.00  0.00     0.140 C 
ENDROOT
BRANCH   6   9
HETATM    9  C   UNK N   1     163.416 156.860 154.856  0.00  0.00     0.257 C 
BRANCH   9  10
HETATM   10  N   UNK N   1     164.815 156.608 154.537  0.00  0.00    -0.232 N 
HETATM   11  N   UNK N   1     165.445 155.453 154.730  0.00  0.00    -0.278 N 
HETATM   12  C   UNK N   1     166.730 155.658 154.356  0.00  0.00     0.130 A 
ATOM     13  HN  UNK N   1     165.042 154.588 155.089  1.00  0.00     0.189 HD
HETATM   14  C   UNK N   1     167.772 154.738 154.395  0.00  0.00     0.050 A 
HETATM   15  N   UNK N   1     166.926 156.917 153.930  0.00  0.00    -0.258 N 
HETATM   16  C   UNK N   1     169.036 155.182 153.967  0.00  0.00     0.005 A 
HETATM   17  C   UNK N   1     169.217 156.510 153.523  0.00  0.00     0.018 A 
HETATM   18  C   UNK N   1     168.124 157.390 153.508  0.00  0.00     0.103 A 
HETATM   19  C   UNK N   1     165.715 157.500 154.048  0.00  0.00     0.349 A 
HETATM   20  O   UNK N   1     165.469 158.660 153.770  0.00  0.00    -0.244 OA
ENDBRANCH   9  10
ENDBRANCH   6   9
BRANCH   3  21
HETATM   21  C   UNK N   1     165.595 159.406 158.279  0.00  0.00    -0.052 A 
HETATM   22  C   UNK N   1     166.783 159.459 159.032  0.00  0.00     0.007 A 
HETATM   23  C   UNK N   1     167.806 160.341 158.683  0.00  0.00     0.001 A 
HETATM   24  C   UNK N   1     167.661 161.172 157.571  0.00  0.00     0.000 A 
HETATM   25  C   UNK N   1     166.485 161.132 156.816  0.00  0.00     0.001 A 
HETATM   26  C   UNK N   1     165.453 160.259 157.174  0.00  0.00     0.007 A 
ENDBRANCH   3  21
BRANCH   1  27
HETATM   27  C   UNK N   1     164.455 154.719 159.662  0.00  0.00     0.264 C 
HETATM   28  O   UNK N   1     164.362 153.946 158.716  0.00  0.00    -0.265 OA
BRANCH  27  29
HETATM   29  O   UNK N   1     165.040 154.323 160.818  0.00  0.00    -0.326 OA
HETATM   30  C   UNK N   1     164.463 154.540 162.047  0.00  0.00     0.213 C 
ENDBRANCH  27  29
ENDBRANCH   1  27
TORSDOF 5
ENDMDL
MODEL 9
REMARK VINA RESULT:      -6.4      5.183      6.503
REMARK  5 active torsions:
REMARK  status: ('A' for Active; 'I' for Inactive)
REMARK    1  A    between atoms: O_2  and  C_3 
REMARK    2  A    between atoms: C_5  and  C_3 
REMARK    3  A    between atoms: C_7  and  C_8 
REMARK       I    between atoms: N_15  and  C_16 
REMARK    4  A    between atoms: C_16  and  C_18 
REMARK    5  A    between atoms: C_18  and  N_19 
ROOT
HETATM    1  C   UNK N   1     168.163 154.918 159.232  0.00  0.00     0.104 C 
HETATM    2  C   UNK N   1     167.865 154.787 157.731  0.00  0.00     0.027 C 
HETATM    3  C   UNK N   1     168.577 155.854 156.886  0.00  0.00     0.037 C 
HETATM    4  C   UNK N   1     168.215 157.271 157.366  0.00  0.00     0.135 C 
HETATM    5  N   UNK N   1     167.686 157.273 158.715  0.00  0.00    -0.349 N 
HETATM    6  C   UNK N   1     166.641 158.083 159.047  0.00  0.00     0.239 C 
HETATM    7  O   UNK N   1     166.167 158.047 160.174  0.00  0.00    -0.271 OA
HETATM    8  C   UNK N   1     168.272 156.379 159.693  0.00  0.00     0.140 C 
ENDROOT
BRANCH   6   9
HETATM    9  C   UNK N   1     166.068 159.053 158.054  0.00  0.00     0.257 C 
BRANCH   9  10
HETATM   10  N   UNK N   1     165.500 158.307 156.939  0.00  0.00    -0.232 N 
HETATM   11  N   UNK N   1     164.943 157.103 157.034  0.00  0.00    -0.278 N 
HETATM   12  C   UNK N   1     164.596 156.749 155.774  0.00  0.00     0.130 A 
ATOM     13  HN  UNK N   1     164.805 156.557 157.883  1.00  0.00     0.189 HD
HETATM   14  C   UNK N   1     163.994 155.563 155.372  0.00  0.00     0.050 A 
HETATM   15  N   UNK N   1     164.922 157.703 154.886  0.00  0.00    -0.258 N 
HETATM   16  C   UNK N   1     163.738 155.406 153.998  0.00  0.00     0.005 A 
HETATM   17  C   UNK N   1     164.089 156.423 153.083  0.00  0.00     0.018 A 
HETATM   18  C   UNK N   1     164.695 157.598 153.553  0.00  0.00     0.103 A 
HETATM   19  C   UNK N   1     165.487 158.675 155.632  0.00  0.00     0.349 A 
HETATM   20  O   UNK N   1     165.932 159.721 155.195  0.00  0.00    -0.244 OA
ENDBRANCH   9  10
ENDBRANCH   6   9
BRANCH   3  21
HETATM   21  C   UNK N   1     168.261 155.710 155.415  0.00  0.00    -0.052 A 
HETATM   22  C   UNK N   1     167.724 154.517 154.897  0.00  0.00     0.007 A 
HETATM   23  C   UNK N   1     167.420 154.407 153.539  0.00  0.00     0.001 A 
HETATM   24  C   UNK N   1     167.636 155.490 152.686  0.00  0.00     0.000 A 
HETATM   25  C   UNK N   1     168.171 156.680 153.188  0.00  0.00     0.001 A 
HETATM   26  C   UNK N   1     168.491 156.786 154.545  0.00  0.00     0.007 A 
ENDBRANCH   3  21
BRANCH   1  27
HETATM   27  C   UNK N   1     167.138 154.199 160.066  0.00  0.00     0.264 C 
HETATM   28  O   UNK N   1     165.952 154.236 159.760  0.00  0.00    -0.265 OA
BRANCH  27  29
HETATM   29  O   UNK N   1     167.544 153.509 161.159  0.00  0.00    -0.326 OA
HETATM   30  C   UNK N   1     166.715 153.274 162.231  0.00  0.00     0.213 C 
ENDBRANCH  27  29
ENDBRANCH   1  27
TORSDOF 5
ENDMDL
