MODEL 1
REMARK VINA RESULT:      -6.5      0.000      0.000
REMARK  3 active torsions:
REMARK  status: ('A' for Active; 'I' for Inactive)
REMARK    1  A    between atoms: C_3  and  C_2 
REMARK       I    between atoms: N_11  and  C_12 
REMARK    2  A    between atoms: C_12  and  C_14 
REMARK    3  A    between atoms: C_18  and  N_19 
ROOT
HETATM    1  C   UNK N   1     166.853 155.611 154.070  0.00  0.00     0.137 C 
HETATM    2  C   UNK N   1     165.628 155.600 154.906  0.00  0.00     0.034 A 
HETATM    3  C   UNK N   1     164.310 155.634 154.517  0.00  0.00     0.028 A 
HETATM    4  C   UNK N   1     163.574 155.498 155.693  0.00  0.00     0.019 A 
HETATM    5  C   UNK N   1     164.490 155.363 156.732  0.00  0.00     0.091 A 
HETATM    6  N   UNK N   1     165.727 155.433 156.222  0.00  0.00    -0.357 N 
HETATM    7  C   UNK N   1     167.009 155.274 156.897  0.00  0.00     0.148 C 
HETATM    8  C   UNK N   1     167.973 154.440 156.012  0.00  0.00     0.147 C 
HETATM    9  N   UNK N   1     167.679 154.512 154.571  0.00  0.00    -0.336 N 
HETATM   10  C   UNK N   1     168.076 153.524 153.697  0.00  0.00     0.254 C 
HETATM   11  O   UNK N   1     167.721 153.594 152.527  0.00  0.00    -0.267 OA
ENDROOT
BRANCH  10  12
HETATM   12  C   UNK N   1     168.932 152.353 154.095  0.00  0.00     0.034 A 
HETATM   13  C   UNK N   1     170.225 152.167 153.586  0.00  0.00     0.017 A 
HETATM   14  C   UNK N   1     170.972 151.037 153.913  0.00  0.00     0.003 A 
HETATM   15  C   UNK N   1     170.433 150.066 154.754  0.00  0.00     0.030 A 
HETATM   16  C   UNK N   1     169.153 150.228 155.300  0.00  0.00     0.040 A 
HETATM   17  C   UNK N   1     168.407 151.375 154.962  0.00  0.00     0.047 A 
BRANCH  16  18
HETATM   18  N   UNK N   1     168.624 149.215 156.162  0.00  0.00    -0.292 N 
HETATM   19  C   UNK N   1     167.951 148.039 155.686  0.00  0.00     0.161 A 
HETATM   20  C   UNK N   1     167.572 147.312 157.008  0.00  0.00     0.201 A 
HETATM   21  O   UNK N   1     168.085 148.113 158.015  0.00  0.00    -0.302 OA
HETATM   22  C   UNK N   1     168.674 149.191 157.496  0.00  0.00     0.367 A 
HETATM   23  O   UNK N   1     169.227 150.037 158.178  0.00  0.00    -0.238 OA
ENDBRANCH  16  18
ENDBRANCH  10  12
BRANCH   1  24
HETATM   24  C   UNK N   1     167.574 156.947 154.265  0.00  0.00     0.027 C 
HETATM   25  C   UNK N   1     168.559 157.216 153.143  0.00  0.00     0.007 C 
ENDBRANCH   1  24
TORSDOF 3
ENDMDL
MODEL 2
REMARK VINA RESULT:      -6.5      2.918      4.199
REMARK  3 active torsions:
REMARK  status: ('A' for Active; 'I' for Inactive)
REMARK    1  A    between atoms: C_3  and  C_2 
REMARK       I    between atoms: N_11  and  C_12 
REMARK    2  A    between atoms: C_12  and  C_14 
REMARK    3  A    between atoms: C_18  and  N_19 
ROOT
HETATM    1  C   UNK N   1     167.888 155.788 155.054  0.00  0.00     0.137 C 
HETATM    2  C   UNK N   1     166.505 156.123 154.634  0.00  0.00     0.034 A 
HETATM    3  C   UNK N   1     166.065 157.146 153.827  0.00  0.00     0.028 A 
HETATM    4  C   UNK N   1     164.695 156.935 153.679  0.00  0.00     0.019 A 
HETATM    5  C   UNK N   1     164.382 155.779 154.387  0.00  0.00     0.091 A 
HETATM    6  N   UNK N   1     165.501 155.312 154.958  0.00  0.00    -0.357 N 
HETATM    7  C   UNK N   1     165.697 154.095 155.735  0.00  0.00     0.148 C 
HETATM    8  C   UNK N   1     167.038 153.423 155.336  0.00  0.00     0.147 C 
HETATM    9  N   UNK N   1     168.039 154.356 154.794  0.00  0.00    -0.336 N 
HETATM   10  C   UNK N   1     169.058 153.933 153.970  0.00  0.00     0.254 C 
HETATM   11  O   UNK N   1     169.805 154.769 153.476  0.00  0.00    -0.267 OA
ENDROOT
BRANCH  10  12
HETATM   12  C   UNK N   1     169.318 152.489 153.639  0.00  0.00     0.034 A 
HETATM   13  C   UNK N   1     169.869 151.596 154.570  0.00  0.00     0.017 A 
HETATM   14  C   UNK N   1     170.166 150.281 154.218  0.00  0.00     0.003 A 
HETATM   15  C   UNK N   1     169.923 149.836 152.921  0.00  0.00     0.030 A 
HETATM   16  C   UNK N   1     169.352 150.692 151.970  0.00  0.00     0.040 A 
HETATM   17  C   UNK N   1     169.056 152.019 152.337  0.00  0.00     0.047 A 
BRANCH  16  18
HETATM   18  N   UNK N   1     169.112 150.207 150.644  0.00  0.00    -0.292 N 
HETATM   19  C   UNK N   1     169.812 150.685 149.484  0.00  0.00     0.161 A 
HETATM   20  C   UNK N   1     169.161 149.861 148.337  0.00  0.00     0.201 A 
HETATM   21  O   UNK N   1     168.245 149.035 148.967  0.00  0.00    -0.302 OA
HETATM   22  C   UNK N   1     168.241 149.263 150.281  0.00  0.00     0.367 A 
HETATM   23  O   UNK N   1     167.537 148.642 151.060  0.00  0.00    -0.238 OA
ENDBRANCH  16  18
ENDBRANCH  10  12
BRANCH   1  24
HETATM   24  C   UNK N   1     168.035 156.074 156.550  0.00  0.00     0.027 C 
HETATM   25  C   UNK N   1     167.630 157.496 156.886  0.00  0.00     0.007 C 
ENDBRANCH   1  24
TORSDOF 3
ENDMDL
MODEL 3
REMARK VINA RESULT:      -6.4      1.531      2.076
REMARK  3 active torsions:
REMARK  status: ('A' for Active; 'I' for Inactive)
REMARK    1  A    between atoms: C_3  and  C_2 
REMARK       I    between atoms: N_11  and  C_12 
REMARK    2  A    between atoms: C_12  and  C_14 
REMARK    3  A    between atoms: C_18  and  N_19 
ROOT
HETATM    1  C   UNK N   1     167.571 156.201 154.848  0.00  0.00     0.137 C 
HETATM    2  C   UNK N   1     166.249 156.595 154.305  0.00  0.00     0.034 A 
HETATM    3  C   UNK N   1     165.942 157.563 153.378  0.00  0.00     0.028 A 
HETATM    4  C   UNK N   1     164.571 157.440 153.156  0.00  0.00     0.019 A 
HETATM    5  C   UNK N   1     164.124 156.385 153.944  0.00  0.00     0.091 A 
HETATM    6  N   UNK N   1     165.165 155.895 154.632  0.00  0.00    -0.357 N 
HETATM    7  C   UNK N   1     165.215 154.748 155.530  0.00  0.00     0.148 C 
HETATM    8  C   UNK N   1     166.520 153.944 155.288  0.00  0.00     0.147 C 
HETATM    9  N   UNK N   1     167.624 154.744 154.733  0.00  0.00    -0.336 N 
HETATM   10  C   UNK N   1     168.655 154.167 154.024  0.00  0.00     0.254 C 
HETATM   11  O   UNK N   1     169.495 154.894 153.507  0.00  0.00    -0.267 OA
ENDROOT
BRANCH  10  12
HETATM   12  C   UNK N   1     168.818 152.683 153.847  0.00  0.00     0.034 A 
HETATM   13  C   UNK N   1     169.077 152.104 152.596  0.00  0.00     0.017 A 
HETATM   14  C   UNK N   1     169.154 150.721 152.445  0.00  0.00     0.003 A 
HETATM   15  C   UNK N   1     168.965 149.889 153.546  0.00  0.00     0.030 A 
HETATM   16  C   UNK N   1     168.728 150.431 154.816  0.00  0.00     0.040 A 
HETATM   17  C   UNK N   1     168.653 151.831 154.957  0.00  0.00     0.047 A 
BRANCH  16  18
HETATM   18  N   UNK N   1     168.539 149.553 155.930  0.00  0.00    -0.292 N 
HETATM   19  C   UNK N   1     169.613 149.064 156.749  0.00  0.00     0.161 A 
HETATM   20  C   UNK N   1     168.870 148.156 157.769  0.00  0.00     0.201 A 
HETATM   21  O   UNK N   1     167.530 148.267 157.436  0.00  0.00    -0.302 OA
HETATM   22  C   UNK N   1     167.379 149.068 156.381  0.00  0.00     0.367 A 
HETATM   23  O   UNK N   1     166.290 149.347 155.910  0.00  0.00    -0.238 OA
ENDBRANCH  16  18
ENDBRANCH  10  12
BRANCH   1  24
HETATM   24  C   UNK N   1     167.649 156.621 156.318  0.00  0.00     0.027 C 
HETATM   25  C   UNK N   1     168.919 156.114 156.974  0.00  0.00     0.007 C 
ENDBRANCH   1  24
TORSDOF 3
ENDMDL
MODEL 4
REMARK VINA RESULT:      -6.3      5.001      8.991
REMARK  3 active torsions:
REMARK  status: ('A' for Active; 'I' for Inactive)
REMARK    1  A    between atoms: C_3  and  C_2 
REMARK       I    between atoms: N_11  and  C_12 
REMARK    2  A    between atoms: C_12  and  C_14 
REMARK    3  A    between atoms: C_18  and  N_19 
ROOT
HETATM    1  C   UNK N   1     166.148 154.874 156.716  0.00  0.00     0.137 C 
HETATM    2  C   UNK N   1     164.870 154.793 155.968  0.00  0.00     0.034 A 
HETATM    3  C   UNK N   1     163.699 154.158 156.311  0.00  0.00     0.028 A 
HETATM    4  C   UNK N   1     162.792 154.487 155.306  0.00  0.00     0.019 A 
HETATM    5  C   UNK N   1     163.456 155.325 154.416  0.00  0.00     0.091 A 
HETATM    6  N   UNK N   1     164.716 155.489 154.844  0.00  0.00    -0.357 N 
HETATM    7  C   UNK N   1     165.772 156.329 154.293  0.00  0.00     0.148 C 
HETATM    8  C   UNK N   1     166.550 157.022 155.443  0.00  0.00     0.147 C 
HETATM    9  N   UNK N   1     166.510 156.291 156.721  0.00  0.00    -0.336 N 
HETATM   10  C   UNK N   1     166.706 156.925 157.928  0.00  0.00     0.254 C 
HETATM   11  O   UNK N   1     166.568 156.282 158.962  0.00  0.00    -0.267 OA
ENDROOT
BRANCH  10  12
HETATM   12  C   UNK N   1     167.090 158.373 158.057  0.00  0.00     0.034 A 
HETATM   13  C   UNK N   1     168.388 158.774 158.407  0.00  0.00     0.017 A 
HETATM   14  C   UNK N   1     168.701 160.119 158.590  0.00  0.00     0.003 A 
HETATM   15  C   UNK N   1     167.715 161.091 158.433  0.00  0.00     0.030 A 
HETATM   16  C   UNK N   1     166.414 160.731 158.062  0.00  0.00     0.040 A 
HETATM   17  C   UNK N   1     166.108 159.368 157.879  0.00  0.00     0.047 A 
BRANCH  16  18
HETATM   18  N   UNK N   1     165.421 161.751 157.906  0.00  0.00    -0.292 N 
HETATM   19  C   UNK N   1     164.628 162.261 158.990  0.00  0.00     0.161 A 
HETATM   20  C   UNK N   1     163.719 163.303 158.280  0.00  0.00     0.201 A 
HETATM   21  O   UNK N   1     164.117 163.277 156.953  0.00  0.00    -0.302 OA
HETATM   22  C   UNK N   1     165.086 162.378 156.776  0.00  0.00     0.367 A 
HETATM   23  O   UNK N   1     165.623 162.185 155.699  0.00  0.00    -0.238 OA
ENDBRANCH  16  18
ENDBRANCH  10  12
BRANCH   1  24
HETATM   24  C   UNK N   1     167.209 154.058 155.973  0.00  0.00     0.027 C 
HETATM   25  C   UNK N   1     168.441 153.838 156.831  0.00  0.00     0.007 C 
ENDBRANCH   1  24
TORSDOF 3
ENDMDL
MODEL 5
REMARK VINA RESULT:      -6.1      2.339      6.871
REMARK  3 active torsions:
REMARK  status: ('A' for Active; 'I' for Inactive)
REMARK    1  A    between atoms: C_3  and  C_2 
REMARK       I    between atoms: N_11  and  C_12 
REMARK    2  A    between atoms: C_12  and  C_14 
REMARK    3  A    between atoms: C_18  and  N_19 
ROOT
HETATM    1  C   UNK N   1     170.299 149.075 154.530  0.00  0.00     0.137 C 
HETATM    2  C   UNK N   1     170.187 148.552 155.913  0.00  0.00     0.034 A 
HETATM    3  C   UNK N   1     171.172 148.364 156.854  0.00  0.00     0.028 A 
HETATM    4  C   UNK N   1     170.506 147.951 158.007  0.00  0.00     0.019 A 
HETATM    5  C   UNK N   1     169.148 147.934 157.709  0.00  0.00     0.091 A 
HETATM    6  N   UNK N   1     168.987 148.299 156.430  0.00  0.00    -0.357 N 
HETATM    7  C   UNK N   1     167.754 148.501 155.679  0.00  0.00     0.148 C 
HETATM    8  C   UNK N   1     167.878 149.763 154.786  0.00  0.00     0.147 C 
HETATM    9  N   UNK N   1     169.263 150.101 154.414  0.00  0.00    -0.336 N 
HETATM   10  C   UNK N   1     169.628 151.380 154.056  0.00  0.00     0.254 C 
HETATM   11  O   UNK N   1     170.811 151.620 153.849  0.00  0.00    -0.267 OA
ENDROOT
BRANCH  10  12
HETATM   12  C   UNK N   1     168.652 152.513 153.897  0.00  0.00     0.034 A 
HETATM   13  C   UNK N   1     168.450 153.157 152.668  0.00  0.00     0.017 A 
HETATM   14  C   UNK N   1     167.593 154.251 152.561  0.00  0.00     0.003 A 
HETATM   15  C   UNK N   1     166.926 154.725 153.688  0.00  0.00     0.030 A 
HETATM   16  C   UNK N   1     167.084 154.093 154.928  0.00  0.00     0.040 A 
HETATM   17  C   UNK N   1     167.953 152.989 155.024  0.00  0.00     0.047 A 
BRANCH  16  18
HETATM   18  N   UNK N   1     166.385 154.601 156.069  0.00  0.00    -0.292 N 
HETATM   19  C   UNK N   1     166.691 155.858 156.694  0.00  0.00     0.161 A 
HETATM   20  C   UNK N   1     165.673 155.904 157.869  0.00  0.00     0.201 A 
HETATM   21  O   UNK N   1     164.933 154.740 157.745  0.00  0.00    -0.302 OA
HETATM   22  C   UNK N   1     165.369 154.020 156.712  0.00  0.00     0.367 A 
HETATM   23  O   UNK N   1     164.862 152.962 156.379  0.00  0.00    -0.238 OA
ENDBRANCH  16  18
ENDBRANCH  10  12
BRANCH   1  24
HETATM   24  C   UNK N   1     170.028 147.935 153.545  0.00  0.00     0.027 C 
HETATM   25  C   UNK N   1     171.097 146.862 153.628  0.00  0.00     0.007 C 
ENDBRANCH   1  24
TORSDOF 3
ENDMDL
MODEL 6
REMARK VINA RESULT:      -5.8      4.587      9.388
REMARK  3 active torsions:
REMARK  status: ('A' for Active; 'I' for Inactive)
REMARK    1  A    between atoms: C_3  and  C_2 
REMARK       I    between atoms: N_11  and  C_12 
REMARK    2  A    between atoms: C_12  and  C_14 
REMARK    3  A    between atoms: C_18  and  N_19 
ROOT
HETATM    1  C   UNK N   1     165.630 154.730 155.103  0.00  0.00     0.137 C 
HETATM    2  C   UNK N   1     166.631 155.619 154.466  0.00  0.00     0.034 A 
HETATM    3  C   UNK N   1     167.004 155.705 153.145  0.00  0.00     0.028 A 
HETATM    4  C   UNK N   1     167.901 156.770 153.084  0.00  0.00     0.019 A 
HETATM    5  C   UNK N   1     168.006 157.289 154.370  0.00  0.00     0.091 A 
HETATM    6  N   UNK N   1     167.227 156.566 155.187  0.00  0.00    -0.357 N 
HETATM    7  C   UNK N   1     166.947 156.764 156.604  0.00  0.00     0.148 C 
HETATM    8  C   UNK N   1     165.443 156.513 156.886  0.00  0.00     0.147 C 
HETATM    9  N   UNK N   1     164.794 155.605 155.925  0.00  0.00    -0.336 N 
HETATM   10  C   UNK N   1     163.434 155.626 155.708  0.00  0.00     0.254 C 
HETATM   11  O   UNK N   1     162.966 154.913 154.828  0.00  0.00    -0.267 OA
ENDROOT
BRANCH  10  12
HETATM   12  C   UNK N   1     162.477 156.477 156.495  0.00  0.00     0.034 A 
HETATM   13  C   UNK N   1     161.749 155.972 157.582  0.00  0.00     0.017 A 
HETATM   14  C   UNK N   1     160.814 156.759 158.251  0.00  0.00     0.003 A 
HETATM   15  C   UNK N   1     160.586 158.070 157.839  0.00  0.00     0.030 A 
HETATM   16  C   UNK N   1     161.311 158.618 156.773  0.00  0.00     0.040 A 
HETATM   17  C   UNK N   1     162.253 157.812 156.103  0.00  0.00     0.047 A 
BRANCH  16  18
HETATM   18  N   UNK N   1     161.057 159.968 156.371  0.00  0.00    -0.292 N 
HETATM   19  C   UNK N   1     161.771 161.100 156.891  0.00  0.00     0.161 A 
HETATM   20  C   UNK N   1     161.095 162.290 156.152  0.00  0.00     0.201 A 
HETATM   21  O   UNK N   1     160.153 161.706 155.321  0.00  0.00    -0.302 OA
HETATM   22  C   UNK N   1     160.156 160.381 155.476  0.00  0.00     0.367 A 
HETATM   23  O   UNK N   1     159.433 159.638 154.835  0.00  0.00    -0.238 OA
ENDBRANCH  16  18
ENDBRANCH  10  12
BRANCH   1  24
HETATM   24  C   UNK N   1     166.358 153.712 155.983  0.00  0.00     0.027 C 
HETATM   25  C   UNK N   1     167.434 152.976 155.208  0.00  0.00     0.007 C 
ENDBRANCH   1  24
TORSDOF 3
ENDMDL
MODEL 7
REMARK VINA RESULT:      -5.8     12.057     14.309
REMARK  3 active torsions:
REMARK  status: ('A' for Active; 'I' for Inactive)
REMARK    1  A    between atoms: C_3  and  C_2 
REMARK       I    between atoms: N_11  and  C_12 
REMARK    2  A    between atoms: C_12  and  C_14 
REMARK    3  A    between atoms: C_18  and  N_19 
ROOT
HETATM    1  C   UNK N   1     158.820 144.621 160.764  0.00  0.00     0.137 C 
HETATM    2  C   UNK N   1     158.139 144.593 162.080  0.00  0.00     0.034 A 
HETATM    3  C   UNK N   1     158.646 144.868 163.329  0.00  0.00     0.028 A 
HETATM    4  C   UNK N   1     157.557 144.791 164.195  0.00  0.00     0.019 A 
HETATM    5  C   UNK N   1     156.440 144.497 163.419  0.00  0.00     0.091 A 
HETATM    6  N   UNK N   1     156.827 144.378 162.142  0.00  0.00    -0.357 N 
HETATM    7  C   UNK N   1     156.015 144.149 160.953  0.00  0.00     0.148 C 
HETATM    8  C   UNK N   1     156.525 145.034 159.785  0.00  0.00     0.147 C 
HETATM    9  N   UNK N   1     157.947 145.402 159.887  0.00  0.00    -0.336 N 
HETATM   10  C   UNK N   1     158.457 146.517 159.260  0.00  0.00     0.254 C 
HETATM   11  O   UNK N   1     159.626 146.823 159.458  0.00  0.00    -0.267 OA
ENDROOT
BRANCH  10  12
HETATM   12  C   UNK N   1     157.659 147.390 158.331  0.00  0.00     0.034 A 
HETATM   13  C   UNK N   1     157.147 148.633 158.730  0.00  0.00     0.017 A 
HETATM   14  C   UNK N   1     156.350 149.391 157.875  0.00  0.00     0.003 A 
HETATM   15  C   UNK N   1     156.045 148.915 156.602  0.00  0.00     0.030 A 
HETATM   16  C   UNK N   1     156.558 147.689 156.159  0.00  0.00     0.040 A 
HETATM   17  C   UNK N   1     157.362 146.930 157.033  0.00  0.00     0.047 A 
BRANCH  16  18
HETATM   18  N   UNK N   1     156.230 147.223 154.846  0.00  0.00    -0.292 N 
HETATM   19  C   UNK N   1     154.895 146.893 154.430  0.00  0.00     0.161 A 
HETATM   20  C   UNK N   1     155.107 146.432 152.960  0.00  0.00     0.201 A 
HETATM   21  O   UNK N   1     156.464 146.587 152.729  0.00  0.00    -0.302 OA
HETATM   22  C   UNK N   1     157.073 147.035 153.828  0.00  0.00     0.367 A 
HETATM   23  O   UNK N   1     158.267 147.278 153.872  0.00  0.00    -0.238 OA
ENDBRANCH  16  18
ENDBRANCH  10  12
BRANCH   1  24
HETATM   24  C   UNK N   1     158.951 143.188 160.242  0.00  0.00     0.027 C 
HETATM   25  C   UNK N   1     159.735 143.138 158.945  0.00  0.00     0.007 C 
ENDBRANCH   1  24
TORSDOF 3
ENDMDL
MODEL 8
REMARK VINA RESULT:      -5.8      5.263      7.825
REMARK  3 active torsions:
REMARK  status: ('A' for Active; 'I' for Inactive)
REMARK    1  A    between atoms: C_3  and  C_2 
REMARK       I    between atoms: N_11  and  C_12 
REMARK    2  A    between atoms: C_12  and  C_14 
REMARK    3  A    between atoms: C_18  and  N_19 
ROOT
HETATM    1  C   UNK N   1     164.136 161.995 157.633  0.00  0.00     0.137 C 
HETATM    2  C   UNK N   1     162.721 161.755 157.259  0.00  0.00     0.034 A 
HETATM    3  C   UNK N   1     161.944 162.405 156.329  0.00  0.00     0.028 A 
HETATM    4  C   UNK N   1     160.734 161.714 156.310  0.00  0.00     0.019 A 
HETATM    5  C   UNK N   1     160.852 160.663 157.214  0.00  0.00     0.091 A 
HETATM    6  N   UNK N   1     162.067 160.717 157.777  0.00  0.00    -0.357 N 
HETATM    7  C   UNK N   1     162.684 159.798 158.725  0.00  0.00     0.148 C 
HETATM    8  C   UNK N   1     164.172 159.570 158.349  0.00  0.00     0.147 C 
HETATM    9  N   UNK N   1     164.779 160.681 157.598  0.00  0.00    -0.336 N 
HETATM   10  C   UNK N   1     165.876 160.497 156.786  0.00  0.00     0.254 C 
HETATM   11  O   UNK N   1     166.278 161.439 156.114  0.00  0.00    -0.267 OA
ENDROOT
BRANCH  10  12
HETATM   12  C   UNK N   1     166.623 159.197 156.675  0.00  0.00     0.034 A 
HETATM   13  C   UNK N   1     167.398 158.689 157.728  0.00  0.00     0.017 A 
HETATM   14  C   UNK N   1     168.139 157.519 157.577  0.00  0.00     0.003 A 
HETATM   15  C   UNK N   1     168.122 156.836 156.363  0.00  0.00     0.030 A 
HETATM   16  C   UNK N   1     167.341 157.299 155.297  0.00  0.00     0.040 A 
HETATM   17  C   UNK N   1     166.597 158.484 155.460  0.00  0.00     0.047 A 
BRANCH  16  18
HETATM   18  N   UNK N   1     167.342 156.577 154.060  0.00  0.00    -0.292 N 
HETATM   19  C   UNK N   1     166.185 155.915 153.525  0.00  0.00     0.161 A 
HETATM   20  C   UNK N   1     166.735 155.287 152.214  0.00  0.00     0.201 A 
HETATM   21  O   UNK N   1     168.061 155.683 152.157  0.00  0.00    -0.302 OA
HETATM   22  C   UNK N   1     168.373 156.414 153.228  0.00  0.00     0.367 A 
HETATM   23  O   UNK N   1     169.477 156.903 153.398  0.00  0.00    -0.238 OA
ENDBRANCH  16  18
ENDBRANCH  10  12
BRANCH   1  24
HETATM   24  C   UNK N   1     164.184 162.571 159.050  0.00  0.00     0.027 C 
HETATM   25  C   UNK N   1     165.611 162.796 159.510  0.00  0.00     0.007 C 
ENDBRANCH   1  24
TORSDOF 3
ENDMDL
MODEL 9
REMARK VINA RESULT:      -5.6      6.468     10.346
REMARK  3 active torsions:
REMARK  status: ('A' for Active; 'I' for Inactive)
REMARK    1  A    between atoms: C_3  and  C_2 
REMARK       I    between atoms: N_11  and  C_12 
REMARK    2  A    between atoms: C_12  and  C_14 
REMARK    3  A    between atoms: C_18  and  N_19 
ROOT
HETATM    1  C   UNK N   1     157.211 159.723 155.969  0.00  0.00     0.137 C 
HETATM    2  C   UNK N   1     156.590 158.504 155.398  0.00  0.00     0.034 A 
HETATM    3  C   UNK N   1     156.024 158.314 154.160  0.00  0.00     0.028 A 
HETATM    4  C   UNK N   1     155.692 156.961 154.109  0.00  0.00     0.019 A 
HETATM    5  C   UNK N   1     156.098 156.397 155.314  0.00  0.00     0.091 A 
HETATM    6  N   UNK N   1     156.636 157.359 156.076  0.00  0.00    -0.357 N 
HETATM    7  C   UNK N   1     157.264 157.250 157.387  0.00  0.00     0.148 C 
HETATM    8  C   UNK N   1     158.530 158.146 157.442  0.00  0.00     0.147 C 
HETATM    9  N   UNK N   1     158.498 159.289 156.515  0.00  0.00    -0.336 N 
HETATM   10  C   UNK N   1     159.650 159.899 156.071  0.00  0.00     0.254 C 
HETATM   11  O   UNK N   1     159.563 160.784 155.228  0.00  0.00    -0.267 OA
ENDROOT
BRANCH  10  12
HETATM   12  C   UNK N   1     161.025 159.544 156.565  0.00  0.00     0.034 A 
HETATM   13  C   UNK N   1     161.669 160.278 157.572  0.00  0.00     0.017 A 
HETATM   14  C   UNK N   1     162.971 159.974 157.964  0.00  0.00     0.003 A 
HETATM   15  C   UNK N   1     163.658 158.930 157.347  0.00  0.00     0.030 A 
HETATM   16  C   UNK N   1     163.039 158.160 156.354  0.00  0.00     0.040 A 
HETATM   17  C   UNK N   1     161.723 158.477 155.966  0.00  0.00     0.047 A 
BRANCH  16  18
HETATM   18  N   UNK N   1     163.768 157.093 155.738  0.00  0.00    -0.292 N 
HETATM   19  C   UNK N   1     163.972 155.810 156.352  0.00  0.00     0.161 A 
HETATM   20  C   UNK N   1     164.825 155.062 155.289  0.00  0.00     0.201 A 
HETATM   21  O   UNK N   1     164.959 155.959 154.243  0.00  0.00    -0.302 OA
HETATM   22  C   UNK N   1     164.348 157.108 154.535  0.00  0.00     0.367 A 
HETATM   23  O   UNK N   1     164.302 158.050 153.762  0.00  0.00    -0.238 OA
ENDBRANCH  16  18
ENDBRANCH  10  12
BRANCH   1  24
HETATM   24  C   UNK N   1     156.315 160.259 157.088  0.00  0.00     0.027 C 
HETATM   25  C   UNK N   1     156.390 161.771 157.185  0.00  0.00     0.007 C 
ENDBRANCH   1  24
TORSDOF 3
ENDMDL
