MODEL 1
REMARK VINA RESULT:      -7.0      0.000      0.000
REMARK  5 active torsions:
REMARK  status: ('A' for Active; 'I' for Inactive)
REMARK    1  A    between atoms: C_2  and  C_3 
REMARK    2  A    between atoms: C_2  and  N_20 
REMARK       I    between atoms: C_3  and  N_5 
REMARK    3  A    between atoms: C_12  and  C_13 
REMARK    4  A    between atoms: C_24  and  C_26 
REMARK    5  A    between atoms: C_26  and  O_27 
ROOT
HETATM    1  C   UNK N   1     166.073 156.567 155.940  0.00  0.00     0.258 C 
HETATM    2  O   UNK N   1     165.524 155.649 156.532  0.00  0.00    -0.271 OA
HETATM    3  N   UNK N   1     167.047 156.288 154.987  0.00  0.00    -0.305 N 
HETATM    4  C   UNK N   1     167.660 157.387 154.251  0.00  0.00     0.235 C 
HETATM    5  C   UNK N   1     168.581 157.005 153.127  0.00  0.00     0.240 C 
HETATM    6  O   UNK N   1     169.026 157.878 152.401  0.00  0.00    -0.271 OA
HETATM    7  N   UNK N   1     168.929 155.722 152.909  0.00  0.00    -0.324 N 
HETATM    8  C   UNK N   1     168.439 154.673 153.713  0.00  0.00     0.062 A 
HETATM    9  C   UNK N   1     168.911 153.376 153.490  0.00  0.00     0.048 A 
HETATM   10  C   UNK N   1     168.461 152.308 154.274  0.00  0.00     0.050 A 
HETATM   11  C   UNK N   1     167.522 152.546 155.278  0.00  0.00     0.018 A 
HETATM   12  C   UNK N   1     167.048 153.838 155.502  0.00  0.00     0.033 A 
HETATM   13  C   UNK N   1     167.496 154.930 154.730  0.00  0.00     0.064 A 
HETATM   14  H   UNK N   1     169.543 155.510 152.168  0.00  0.00     0.169 HD
ENDROOT
BRANCH   1  15
HETATM   15  C   UNK N   1     165.622 157.973 156.364  0.00  0.00     0.310 C 
HETATM   16  C   UNK N   1     164.098 158.013 156.209  0.00  0.00     0.053 C 
BRANCH  15  17
HETATM   17  N   UNK N   1     166.080 158.488 157.672  0.00  0.00     0.102 N 
HETATM   18  C   UNK N   1     167.510 158.836 157.544  0.00  0.00     0.273 C 
HETATM   19  C   UNK N   1     167.982 159.755 158.671  0.00  0.00     0.031 C 
HETATM   20  C   UNK N   1     167.193 161.073 158.689  0.00  0.00     0.015 C 
HETATM   21  C   UNK N   1     165.887 161.013 157.889  0.00  0.00     0.004 C 
HETATM   22  C   UNK N   1     164.939 162.080 158.403  0.00  0.00     0.019 C 
HETATM   23  C   UNK N   1     165.248 159.639 158.115  0.00  0.00     0.284 C 
BRANCH  21  24
HETATM   24  C   UNK N   1     166.129 161.238 156.393  0.00  0.00     0.175 C 
BRANCH  24  25
HETATM   25  O   UNK N   1     165.812 162.547 156.020  0.00  0.00    -0.400 OA
HETATM   26  H   UNK N   1     165.147 162.530 155.314  0.00  0.00     0.209 HD
ENDBRANCH  24  25
ENDBRANCH  21  24
ENDBRANCH  15  17
ENDBRANCH   1  15
BRANCH  10  27
HETATM   27  C   UNK N   1     168.983 150.917 154.058  0.00  0.00     0.417 C 
HETATM   28  F   UNK N   1     170.097 150.714 154.853  0.00  0.00    -0.166 F 
HETATM   29  F   UNK N   1     169.340 150.718 152.735  0.00  0.00    -0.166 F 
HETATM   30  F   UNK N   1     168.009 149.998 154.401  0.00  0.00    -0.166 F 
ENDBRANCH  10  27
TORSDOF 5
ENDMDL
MODEL 2
REMARK VINA RESULT:      -6.6      2.831      4.923
REMARK  5 active torsions:
REMARK  status: ('A' for Active; 'I' for Inactive)
REMARK    1  A    between atoms: C_2  and  C_3 
REMARK    2  A    between atoms: C_2  and  N_20 
REMARK       I    between atoms: C_3  and  N_5 
REMARK    3  A    between atoms: C_12  and  C_13 
REMARK    4  A    between atoms: C_24  and  C_26 
REMARK    5  A    between atoms: C_26  and  O_27 
ROOT
HETATM    1  C   UNK N   1     168.233 154.513 153.063  0.00  0.00     0.258 C 
HETATM    2  O   UNK N   1     168.226 154.746 151.863  0.00  0.00    -0.271 OA
HETATM    3  N   UNK N   1     168.497 153.224 153.514  0.00  0.00    -0.305 N 
HETATM    4  C   UNK N   1     168.553 152.968 154.948  0.00  0.00     0.235 C 
HETATM    5  C   UNK N   1     169.003 151.596 155.363  0.00  0.00     0.240 C 
HETATM    6  O   UNK N   1     169.184 151.363 156.546  0.00  0.00    -0.271 OA
HETATM    7  N   UNK N   1     169.202 150.618 154.457  0.00  0.00    -0.324 N 
HETATM    8  C   UNK N   1     169.013 150.834 153.078  0.00  0.00     0.062 A 
HETATM    9  C   UNK N   1     169.150 149.754 152.201  0.00  0.00     0.048 A 
HETATM   10  C   UNK N   1     168.958 149.921 150.825  0.00  0.00     0.050 A 
HETATM   11  C   UNK N   1     168.639 151.186 150.330  0.00  0.00     0.018 A 
HETATM   12  C   UNK N   1     168.505 152.267 151.201  0.00  0.00     0.033 A 
HETATM   13  C   UNK N   1     168.684 152.117 152.592  0.00  0.00     0.064 A 
HETATM   14  H   UNK N   1     169.488 149.728 154.768  0.00  0.00     0.169 HD
ENDROOT
BRANCH   1  15
HETATM   15  C   UNK N   1     167.903 155.718 153.958  0.00  0.00     0.310 C 
HETATM   16  C   UNK N   1     169.143 156.618 153.960  0.00  0.00     0.053 C 
BRANCH  15  17
HETATM   17  N   UNK N   1     166.654 156.462 153.695  0.00  0.00     0.102 N 
HETATM   18  C   UNK N   1     165.532 155.662 154.228  0.00  0.00     0.273 C 
HETATM   19  C   UNK N   1     164.261 156.495 154.399  0.00  0.00     0.031 C 
HETATM   20  C   UNK N   1     164.483 157.667 155.366  0.00  0.00     0.015 C 
HETATM   21  C   UNK N   1     165.962 157.987 155.607  0.00  0.00     0.004 C 
HETATM   22  C   UNK N   1     166.092 159.426 156.070  0.00  0.00     0.019 C 
HETATM   23  C   UNK N   1     166.712 157.829 154.280  0.00  0.00     0.284 C 
BRANCH  21  24
HETATM   24  C   UNK N   1     166.574 157.065 156.667  0.00  0.00     0.175 C 
BRANCH  24  25
HETATM   25  O   UNK N   1     167.797 157.560 157.125  0.00  0.00    -0.400 OA
HETATM   26  H   UNK N   1     168.274 157.976 156.390  0.00  0.00     0.209 HD
ENDBRANCH  24  25
ENDBRANCH  21  24
ENDBRANCH  15  17
ENDBRANCH   1  15
BRANCH  10  27
HETATM   27  C   UNK N   1     169.077 148.760 149.881  0.00  0.00     0.417 C 
HETATM   28  F   UNK N   1     169.002 147.577 150.594  0.00  0.00    -0.166 F 
HETATM   29  F   UNK N   1     170.282 148.792 149.201  0.00  0.00    -0.166 F 
HETATM   30  F   UNK N   1     168.045 148.802 148.963  0.00  0.00    -0.166 F 
ENDBRANCH  10  27
TORSDOF 5
ENDMDL
MODEL 3
REMARK VINA RESULT:      -6.5      3.835      5.444
REMARK  5 active torsions:
REMARK  status: ('A' for Active; 'I' for Inactive)
REMARK    1  A    between atoms: C_2  and  C_3 
REMARK    2  A    between atoms: C_2  and  N_20 
REMARK       I    between atoms: C_3  and  N_5 
REMARK    3  A    between atoms: C_12  and  C_13 
REMARK    4  A    between atoms: C_24  and  C_26 
REMARK    5  A    between atoms: C_26  and  O_27 
ROOT
HETATM    1  C   UNK N   1     167.365 155.477 154.870  0.00  0.00     0.258 C 
HETATM    2  O   UNK N   1     166.855 156.441 154.319  0.00  0.00    -0.271 OA
HETATM    3  N   UNK N   1     167.775 154.386 154.111  0.00  0.00    -0.305 N 
HETATM    4  C   UNK N   1     168.428 153.262 154.773  0.00  0.00     0.235 C 
HETATM    5  C   UNK N   1     168.989 152.196 153.875  0.00  0.00     0.240 C 
HETATM    6  O   UNK N   1     169.651 151.296 154.365  0.00  0.00    -0.271 OA
HETATM    7  N   UNK N   1     168.772 152.210 152.546  0.00  0.00    -0.324 N 
HETATM    8  C   UNK N   1     168.021 153.230 151.927  0.00  0.00     0.062 A 
HETATM    9  C   UNK N   1     167.757 153.136 150.557  0.00  0.00     0.048 A 
HETATM   10  C   UNK N   1     167.005 154.119 149.906  0.00  0.00     0.050 A 
HETATM   11  C   UNK N   1     166.526 155.208 150.636  0.00  0.00     0.018 A 
HETATM   12  C   UNK N   1     166.789 155.305 152.002  0.00  0.00     0.033 A 
HETATM   13  C   UNK N   1     167.537 154.320 152.680  0.00  0.00     0.064 A 
HETATM   14  H   UNK N   1     169.148 151.489 151.991  0.00  0.00     0.169 HD
ENDROOT
BRANCH   1  15
HETATM   15  C   UNK N   1     167.464 155.583 156.400  0.00  0.00     0.310 C 
HETATM   16  C   UNK N   1     168.558 156.613 156.701  0.00  0.00     0.053 C 
BRANCH  15  17
HETATM   17  N   UNK N   1     166.223 155.824 157.165  0.00  0.00     0.102 N 
HETATM   18  C   UNK N   1     165.508 154.536 157.283  0.00  0.00     0.273 C 
HETATM   19  C   UNK N   1     164.453 154.562 158.389  0.00  0.00     0.031 C 
HETATM   20  C   UNK N   1     165.080 154.861 159.758  0.00  0.00     0.015 C 
HETATM   21  C   UNK N   1     166.488 155.460 159.667  0.00  0.00     0.004 C 
HETATM   22  C   UNK N   1     166.788 156.226 160.941  0.00  0.00     0.019 C 
HETATM   23  C   UNK N   1     166.519 156.438 158.487  0.00  0.00     0.284 C 
BRANCH  21  24
HETATM   24  C   UNK N   1     167.552 154.374 159.475  0.00  0.00     0.175 C 
BRANCH  24  25
HETATM   25  O   UNK N   1     167.578 153.494 160.559  0.00  0.00    -0.400 OA
HETATM   26  H   UNK N   1     167.100 153.886 161.306  0.00  0.00     0.209 HD
ENDBRANCH  24  25
ENDBRANCH  21  24
ENDBRANCH  15  17
ENDBRANCH   1  15
BRANCH  10  27
HETATM   27  C   UNK N   1     166.695 154.012 148.441  0.00  0.00     0.417 C 
HETATM   28  F   UNK N   1     166.824 155.256 147.851  0.00  0.00    -0.166 F 
HETATM   29  F   UNK N   1     165.404 153.556 148.236  0.00  0.00    -0.166 F 
HETATM   30  F   UNK N   1     167.579 153.134 147.843  0.00  0.00    -0.166 F 
ENDBRANCH  10  27
TORSDOF 5
ENDMDL
MODEL 4
REMARK VINA RESULT:      -6.4      1.668      1.973
REMARK  5 active torsions:
REMARK  status: ('A' for Active; 'I' for Inactive)
REMARK    1  A    between atoms: C_2  and  C_3 
REMARK    2  A    between atoms: C_2  and  N_20 
REMARK       I    between atoms: C_3  and  N_5 
REMARK    3  A    between atoms: C_12  and  C_13 
REMARK    4  A    between atoms: C_24  and  C_26 
REMARK    5  A    between atoms: C_26  and  O_27 
ROOT
HETATM    1  C   UNK N   1     165.929 156.869 157.353  0.00  0.00     0.258 C 
HETATM    2  O   UNK N   1     166.415 156.000 158.062  0.00  0.00    -0.271 OA
HETATM    3  N   UNK N   1     165.967 156.732 155.970  0.00  0.00    -0.305 N 
HETATM    4  C   UNK N   1     165.340 157.749 155.134  0.00  0.00     0.235 C 
HETATM    5  C   UNK N   1     165.276 157.456 153.662  0.00  0.00     0.240 C 
HETATM    6  O   UNK N   1     164.656 158.212 152.933  0.00  0.00    -0.271 OA
HETATM    7  N   UNK N   1     165.892 156.381 153.132  0.00  0.00    -0.324 N 
HETATM    8  C   UNK N   1     166.615 155.472 153.929  0.00  0.00     0.062 A 
HETATM    9  C   UNK N   1     167.305 154.429 153.305  0.00  0.00     0.048 A 
HETATM   10  C   UNK N   1     168.047 153.511 154.058  0.00  0.00     0.050 A 
HETATM   11  C   UNK N   1     168.082 153.639 155.447  0.00  0.00     0.018 A 
HETATM   12  C   UNK N   1     167.392 154.677 156.073  0.00  0.00     0.033 A 
HETATM   13  C   UNK N   1     166.648 155.618 155.332  0.00  0.00     0.064 A 
HETATM   14  H   UNK N   1     165.835 156.227 152.161  0.00  0.00     0.169 HD
ENDROOT
BRANCH   1  15
HETATM   15  C   UNK N   1     165.340 158.069 158.111  0.00  0.00     0.310 C 
HETATM   16  C   UNK N   1     164.175 157.533 158.949  0.00  0.00     0.053 C 
BRANCH  15  17
HETATM   17  N   UNK N   1     166.262 158.924 158.889  0.00  0.00     0.102 N 
HETATM   18  C   UNK N   1     167.466 159.155 158.065  0.00  0.00     0.273 C 
HETATM   19  C   UNK N   1     168.288 160.343 158.568  0.00  0.00     0.031 C 
HETATM   20  C   UNK N   1     167.469 161.642 158.551  0.00  0.00     0.015 C 
HETATM   21  C   UNK N   1     165.957 161.408 158.446  0.00  0.00     0.004 C 
HETATM   22  C   UNK N   1     165.227 162.619 158.994  0.00  0.00     0.019 C 
HETATM   23  C   UNK N   1     165.598 160.189 159.303  0.00  0.00     0.284 C 
BRANCH  21  24
HETATM   24  C   UNK N   1     165.521 161.175 156.996  0.00  0.00     0.175 C 
BRANCH  24  25
HETATM   25  O   UNK N   1     166.055 162.145 156.144  0.00  0.00    -0.400 OA
HETATM   26  H   UNK N   1     165.379 162.813 155.951  0.00  0.00     0.209 HD
ENDBRANCH  24  25
ENDBRANCH  21  24
ENDBRANCH  15  17
ENDBRANCH   1  15
BRANCH  10  27
HETATM   27  C   UNK N   1     168.812 152.404 153.392  0.00  0.00     0.417 C 
HETATM   28  F   UNK N   1     168.438 151.191 153.941  0.00  0.00    -0.166 F 
HETATM   29  F   UNK N   1     170.176 152.568 153.564  0.00  0.00    -0.166 F 
HETATM   30  F   UNK N   1     168.531 152.395 152.039  0.00  0.00    -0.166 F 
ENDBRANCH  10  27
TORSDOF 5
ENDMDL
MODEL 5
REMARK VINA RESULT:      -6.2      4.495      6.414
REMARK  5 active torsions:
REMARK  status: ('A' for Active; 'I' for Inactive)
REMARK    1  A    between atoms: C_2  and  C_3 
REMARK    2  A    between atoms: C_2  and  N_20 
REMARK       I    between atoms: C_3  and  N_5 
REMARK    3  A    between atoms: C_12  and  C_13 
REMARK    4  A    between atoms: C_24  and  C_26 
REMARK    5  A    between atoms: C_26  and  O_27 
ROOT
HETATM    1  C   UNK N   1     163.875 157.131 158.264  0.00  0.00     0.258 C 
HETATM    2  O   UNK N   1     164.372 158.244 158.167  0.00  0.00    -0.271 OA
HETATM    3  N   UNK N   1     164.352 156.092 157.472  0.00  0.00    -0.305 N 
HETATM    4  C   UNK N   1     163.787 154.757 157.631  0.00  0.00     0.235 C 
HETATM    5  C   UNK N   1     164.459 153.653 156.864  0.00  0.00     0.240 C 
HETATM    6  O   UNK N   1     164.107 152.501 157.051  0.00  0.00    -0.271 OA
HETATM    7  N   UNK N   1     165.435 153.911 155.972  0.00  0.00    -0.324 N 
HETATM    8  C   UNK N   1     165.884 155.223 155.722  0.00  0.00     0.062 A 
HETATM    9  C   UNK N   1     166.836 155.429 154.719  0.00  0.00     0.048 A 
HETATM   10  C   UNK N   1     167.300 156.717 154.428  0.00  0.00     0.050 A 
HETATM   11  C   UNK N   1     166.812 157.800 155.160  0.00  0.00     0.018 A 
HETATM   12  C   UNK N   1     165.864 157.597 156.163  0.00  0.00     0.033 A 
HETATM   13  C   UNK N   1     165.376 156.309 156.465  0.00  0.00     0.064 A 
HETATM   14  H   UNK N   1     165.846 153.162 155.481  0.00  0.00     0.169 HD
ENDROOT
BRANCH   1  15
HETATM   15  C   UNK N   1     162.715 157.024 159.267  0.00  0.00     0.310 C 
HETATM   16  C   UNK N   1     163.247 157.531 160.612  0.00  0.00     0.053 C 
BRANCH  15  17
HETATM   17  N   UNK N   1     161.417 157.626 158.899  0.00  0.00     0.102 N 
HETATM   18  C   UNK N   1     160.733 156.696 157.977  0.00  0.00     0.273 C 
HETATM   19  C   UNK N   1     159.237 156.993 157.864  0.00  0.00     0.031 C 
HETATM   20  C   UNK N   1     158.537 156.880 159.226  0.00  0.00     0.015 C 
HETATM   21  C   UNK N   1     159.505 156.912 160.414  0.00  0.00     0.004 C 
HETATM   22  C   UNK N   1     158.756 157.361 161.654  0.00  0.00     0.019 C 
HETATM   23  C   UNK N   1     160.607 157.932 160.109  0.00  0.00     0.284 C 
BRANCH  21  24
HETATM   24  C   UNK N   1     160.123 155.535 160.676  0.00  0.00     0.175 C 
BRANCH  24  25
HETATM   25  O   UNK N   1     159.425 154.846 161.670  0.00  0.00    -0.400 OA
HETATM   26  H   UNK N   1     159.412 153.899 161.461  0.00  0.00     0.209 HD
ENDBRANCH  24  25
ENDBRANCH  21  24
ENDBRANCH  15  17
ENDBRANCH   1  15
BRANCH  10  27
HETATM   27  C   UNK N   1     168.303 156.950 153.335  0.00  0.00     0.417 C 
HETATM   28  F   UNK N   1     169.579 156.753 153.831  0.00  0.00    -0.166 F 
HETATM   29  F   UNK N   1     168.212 158.240 152.842  0.00  0.00    -0.166 F 
HETATM   30  F   UNK N   1     168.076 156.060 152.302  0.00  0.00    -0.166 F 
ENDBRANCH  10  27
TORSDOF 5
ENDMDL
MODEL 6
REMARK VINA RESULT:      -6.2      3.678      5.209
REMARK  5 active torsions:
REMARK  status: ('A' for Active; 'I' for Inactive)
REMARK    1  A    between atoms: C_2  and  C_3 
REMARK    2  A    between atoms: C_2  and  N_20 
REMARK       I    between atoms: C_3  and  N_5 
REMARK    3  A    between atoms: C_12  and  C_13 
REMARK    4  A    between atoms: C_24  and  C_26 
REMARK    5  A    between atoms: C_26  and  O_27 
ROOT
HETATM    1  C   UNK N   1     167.356 155.296 154.992  0.00  0.00     0.258 C 
HETATM    2  O   UNK N   1     166.861 156.278 154.460  0.00  0.00    -0.271 OA
HETATM    3  N   UNK N   1     167.776 154.226 154.208  0.00  0.00    -0.305 N 
HETATM    4  C   UNK N   1     168.411 153.080 154.848  0.00  0.00     0.235 C 
HETATM    5  C   UNK N   1     168.986 152.038 153.929  0.00  0.00     0.240 C 
HETATM    6  O   UNK N   1     169.633 151.120 154.404  0.00  0.00    -0.271 OA
HETATM    7  N   UNK N   1     168.795 152.094 152.597  0.00  0.00    -0.324 N 
HETATM    8  C   UNK N   1     168.061 153.135 151.995  0.00  0.00     0.062 A 
HETATM    9  C   UNK N   1     167.823 153.085 150.618  0.00  0.00     0.048 A 
HETATM   10  C   UNK N   1     167.088 154.091 149.982  0.00  0.00     0.050 A 
HETATM   11  C   UNK N   1     166.599 155.159 150.736  0.00  0.00     0.018 A 
HETATM   12  C   UNK N   1     166.836 155.214 152.109  0.00  0.00     0.033 A 
HETATM   13  C   UNK N   1     167.566 154.205 152.771  0.00  0.00     0.064 A 
HETATM   14  H   UNK N   1     169.179 151.388 152.027  0.00  0.00     0.169 HD
ENDROOT
BRANCH   1  15
HETATM   15  C   UNK N   1     167.425 155.354 156.526  0.00  0.00     0.310 C 
HETATM   16  C   UNK N   1     167.424 156.837 156.911  0.00  0.00     0.053 C 
BRANCH  15  17
HETATM   17  N   UNK N   1     166.448 154.559 157.299  0.00  0.00     0.102 N 
HETATM   18  C   UNK N   1     166.147 155.300 158.542  0.00  0.00     0.273 C 
HETATM   19  C   UNK N   1     164.863 154.807 159.209  0.00  0.00     0.031 C 
HETATM   20  C   UNK N   1     163.650 154.965 158.281  0.00  0.00     0.015 C 
HETATM   21  C   UNK N   1     164.031 155.173 156.811  0.00  0.00     0.004 C 
HETATM   22  C   UNK N   1     162.867 154.757 155.931  0.00  0.00     0.019 C 
HETATM   23  C   UNK N   1     165.231 154.275 156.493  0.00  0.00     0.284 C 
BRANCH  21  24
HETATM   24  C   UNK N   1     164.379 156.636 156.519  0.00  0.00     0.175 C 
BRANCH  24  25
HETATM   25  O   UNK N   1     164.080 156.974 155.197  0.00  0.00    -0.400 OA
HETATM   26  H   UNK N   1     163.947 156.166 154.678  0.00  0.00     0.209 HD
ENDBRANCH  24  25
ENDBRANCH  21  24
ENDBRANCH  15  17
ENDBRANCH   1  15
BRANCH  10  27
HETATM   27  C   UNK N   1     166.806 154.030 148.509  0.00  0.00     0.417 C 
HETATM   28  F   UNK N   1     166.908 155.299 147.967  0.00  0.00    -0.166 F 
HETATM   29  F   UNK N   1     165.533 153.544 148.264  0.00  0.00    -0.166 F 
HETATM   30  F   UNK N   1     167.726 153.201 147.895  0.00  0.00    -0.166 F 
ENDBRANCH  10  27
TORSDOF 5
ENDMDL
MODEL 7
REMARK VINA RESULT:      -6.2      1.792      2.171
REMARK  5 active torsions:
REMARK  status: ('A' for Active; 'I' for Inactive)
REMARK    1  A    between atoms: C_2  and  C_3 
REMARK    2  A    between atoms: C_2  and  N_20 
REMARK       I    between atoms: C_3  and  N_5 
REMARK    3  A    between atoms: C_12  and  C_13 
REMARK    4  A    between atoms: C_24  and  C_26 
REMARK    5  A    between atoms: C_26  and  O_27 
ROOT
HETATM    1  C   UNK N   1     165.729 154.379 155.649  0.00  0.00     0.258 C 
HETATM    2  O   UNK N   1     165.416 153.293 156.114  0.00  0.00    -0.271 OA
HETATM    3  N   UNK N   1     166.871 154.489 154.864  0.00  0.00    -0.305 N 
HETATM    4  C   UNK N   1     167.208 155.779 154.272  0.00  0.00     0.235 C 
HETATM    5  C   UNK N   1     168.360 155.788 153.307  0.00  0.00     0.240 C 
HETATM    6  O   UNK N   1     168.609 156.811 152.690  0.00  0.00    -0.271 OA
HETATM    7  N   UNK N   1     169.123 154.695 153.113  0.00  0.00    -0.324 N 
HETATM    8  C   UNK N   1     168.875 153.487 153.793  0.00  0.00     0.062 A 
HETATM    9  C   UNK N   1     169.760 152.419 153.615  0.00  0.00     0.048 A 
HETATM   10  C   UNK N   1     169.559 151.205 154.281  0.00  0.00     0.050 A 
HETATM   11  C   UNK N   1     168.454 151.063 155.122  0.00  0.00     0.018 A 
HETATM   12  C   UNK N   1     167.569 152.126 155.301  0.00  0.00     0.033 A 
HETATM   13  C   UNK N   1     167.759 153.360 154.646  0.00  0.00     0.064 A 
HETATM   14  H   UNK N   1     169.876 154.742 152.479  0.00  0.00     0.169 HD
ENDROOT
BRANCH   1  15
HETATM   15  C   UNK N   1     164.799 155.541 156.033  0.00  0.00     0.310 C 
HETATM   16  C   UNK N   1     163.382 155.127 155.622  0.00  0.00     0.053 C 
BRANCH  15  17
HETATM   17  N   UNK N   1     164.866 156.062 157.415  0.00  0.00     0.102 N 
HETATM   18  C   UNK N   1     166.292 156.210 157.772  0.00  0.00     0.273 C 
HETATM   19  C   UNK N   1     166.490 157.120 158.985  0.00  0.00     0.031 C 
HETATM   20  C   UNK N   1     165.937 158.529 158.728  0.00  0.00     0.015 C 
HETATM   21  C   UNK N   1     164.974 158.598 157.537  0.00  0.00     0.004 C 
HETATM   22  C   UNK N   1     164.073 159.807 157.695  0.00  0.00     0.019 C 
HETATM   23  C   UNK N   1     164.108 157.335 157.545  0.00  0.00     0.284 C 
BRANCH  21  24
HETATM   24  C   UNK N   1     165.728 158.708 156.207  0.00  0.00     0.175 C 
BRANCH  24  25
HETATM   25  O   UNK N   1     165.678 160.009 155.702  0.00  0.00    -0.400 OA
HETATM   26  H   UNK N   1     165.243 160.590 156.346  0.00  0.00     0.209 HD
ENDBRANCH  24  25
ENDBRANCH  21  24
ENDBRANCH  15  17
ENDBRANCH   1  15
BRANCH  10  27
HETATM   27  C   UNK N   1     170.519 150.063 154.115  0.00  0.00     0.417 C 
HETATM   28  F   UNK N   1     171.326 149.973 155.235  0.00  0.00    -0.166 F 
HETATM   29  F   UNK N   1     171.323 150.245 153.003  0.00  0.00    -0.166 F 
HETATM   30  F   UNK N   1     169.815 148.883 153.969  0.00  0.00    -0.166 F 
ENDBRANCH  10  27
TORSDOF 5
ENDMDL
MODEL 8
REMARK VINA RESULT:      -6.2      5.344      8.144
REMARK  5 active torsions:
REMARK  status: ('A' for Active; 'I' for Inactive)
REMARK    1  A    between atoms: C_2  and  C_3 
REMARK    2  A    between atoms: C_2  and  N_20 
REMARK       I    between atoms: C_3  and  N_5 
REMARK    3  A    between atoms: C_12  and  C_13 
REMARK    4  A    between atoms: C_24  and  C_26 
REMARK    5  A    between atoms: C_26  and  O_27 
ROOT
HETATM    1  C   UNK N   1     164.401 157.537 155.539  0.00  0.00     0.258 C 
HETATM    2  O   UNK N   1     164.312 158.643 156.052  0.00  0.00    -0.271 OA
HETATM    3  N   UNK N   1     163.392 156.600 155.740  0.00  0.00    -0.305 N 
HETATM    4  C   UNK N   1     163.484 155.301 155.084  0.00  0.00     0.235 C 
HETATM    5  C   UNK N   1     162.285 154.404 155.213  0.00  0.00     0.240 C 
HETATM    6  O   UNK N   1     162.257 153.359 154.585  0.00  0.00    -0.271 OA
HETATM    7  N   UNK N   1     161.248 154.727 156.009  0.00  0.00    -0.324 N 
HETATM    8  C   UNK N   1     161.226 155.925 156.751  0.00  0.00     0.062 A 
HETATM    9  C   UNK N   1     160.162 156.156 157.627  0.00  0.00     0.048 A 
HETATM   10  C   UNK N   1     160.107 157.327 158.392  0.00  0.00     0.050 A 
HETATM   11  C   UNK N   1     161.125 158.274 158.264  0.00  0.00     0.018 A 
HETATM   12  C   UNK N   1     162.187 158.047 157.389  0.00  0.00     0.033 A 
HETATM   13  C   UNK N   1     162.266 156.870 156.617  0.00  0.00     0.064 A 
HETATM   14  H   UNK N   1     160.484 154.109 156.075  0.00  0.00     0.169 HD
ENDROOT
BRANCH   1  15
HETATM   15  C   UNK N   1     165.686 157.298 154.730  0.00  0.00     0.310 C 
HETATM   16  C   UNK N   1     165.746 158.398 153.665  0.00  0.00     0.053 C 
BRANCH  15  17
HETATM   17  N   UNK N   1     166.957 157.144 155.468  0.00  0.00     0.102 N 
HETATM   18  C   UNK N   1     166.683 156.340 156.677  0.00  0.00     0.273 C 
HETATM   19  C   UNK N   1     167.960 155.761 157.286  0.00  0.00     0.031 C 
HETATM   20  C   UNK N   1     168.696 154.851 156.291  0.00  0.00     0.015 C 
HETATM   21  C   UNK N   1     168.245 155.046 154.839  0.00  0.00     0.004 C 
HETATM   22  C   UNK N   1     169.348 154.578 153.908  0.00  0.00     0.019 C 
HETATM   23  C   UNK N   1     168.008 156.541 154.605  0.00  0.00     0.284 C 
BRANCH  21  24
HETATM   24  C   UNK N   1     166.967 154.258 154.534  0.00  0.00     0.175 C 
BRANCH  24  25
HETATM   25  O   UNK N   1     166.941 153.045 155.226  0.00  0.00    -0.400 OA
HETATM   26  H   UNK N   1     166.155 152.540 154.966  0.00  0.00     0.209 HD
ENDBRANCH  24  25
ENDBRANCH  21  24
ENDBRANCH  15  17
ENDBRANCH   1  15
BRANCH  10  27
HETATM   27  C   UNK N   1     158.981 157.570 159.355  0.00  0.00     0.417 C 
HETATM   28  F   UNK N   1     159.319 157.063 160.596  0.00  0.00    -0.166 F 
HETATM   29  F   UNK N   1     157.817 156.954 158.927  0.00  0.00    -0.166 F 
HETATM   30  F   UNK N   1     158.753 158.928 159.467  0.00  0.00    -0.166 F 
ENDBRANCH  10  27
TORSDOF 5
ENDMDL
MODEL 9
REMARK VINA RESULT:      -6.2      2.899      4.780
REMARK  5 active torsions:
REMARK  status: ('A' for Active; 'I' for Inactive)
REMARK    1  A    between atoms: C_2  and  C_3 
REMARK    2  A    between atoms: C_2  and  N_20 
REMARK       I    between atoms: C_3  and  N_5 
REMARK    3  A    between atoms: C_12  and  C_13 
REMARK    4  A    between atoms: C_24  and  C_26 
REMARK    5  A    between atoms: C_26  and  O_27 
ROOT
HETATM    1  C   UNK N   1     166.522 156.400 155.261  0.00  0.00     0.258 C 
HETATM    2  O   UNK N   1     166.236 157.144 154.334  0.00  0.00    -0.271 OA
HETATM    3  N   UNK N   1     167.114 155.169 154.999  0.00  0.00    -0.305 N 
HETATM    4  C   UNK N   1     167.497 154.310 156.114  0.00  0.00     0.235 C 
HETATM    5  C   UNK N   1     168.276 153.073 155.765  0.00  0.00     0.240 C 
HETATM    6  O   UNK N   1     168.727 152.383 156.663  0.00  0.00    -0.271 OA
HETATM    7  N   UNK N   1     168.481 152.710 154.484  0.00  0.00    -0.324 N 
HETATM    8  C   UNK N   1     167.988 153.474 153.408  0.00  0.00     0.062 A 
HETATM    9  C   UNK N   1     168.158 152.993 152.106  0.00  0.00     0.048 A 
HETATM   10  C   UNK N   1     167.673 153.714 151.009  0.00  0.00     0.050 A 
HETATM   11  C   UNK N   1     167.025 154.931 151.224  0.00  0.00     0.018 A 
HETATM   12  C   UNK N   1     166.856 155.415 152.522  0.00  0.00     0.033 A 
HETATM   13  C   UNK N   1     167.328 154.699 153.641  0.00  0.00     0.064 A 
HETATM   14  H   UNK N   1     168.989 151.887 154.294  0.00  0.00     0.169 HD
ENDROOT
BRANCH   1  15
HETATM   15  C   UNK N   1     166.147 156.926 156.655  0.00  0.00     0.310 C 
HETATM   16  C   UNK N   1     167.084 158.103 156.949  0.00  0.00     0.053 C 
BRANCH  15  17
HETATM   17  N   UNK N   1     164.728 157.242 156.923  0.00  0.00     0.102 N 
HETATM   18  C   UNK N   1     163.905 156.452 155.985  0.00  0.00     0.273 C 
HETATM   19  C   UNK N   1     162.446 156.363 156.432  0.00  0.00     0.031 C 
HETATM   20  C   UNK N   1     162.320 155.704 157.813  0.00  0.00     0.015 C 
HETATM   21  C   UNK N   1     163.639 155.665 158.594  0.00  0.00     0.004 C 
HETATM   22  C   UNK N   1     163.338 155.548 160.075  0.00  0.00     0.019 C 
HETATM   23  C   UNK N   1     164.382 156.983 158.347  0.00  0.00     0.284 C 
BRANCH  21  24
HETATM   24  C   UNK N   1     164.514 154.483 158.166  0.00  0.00     0.175 C 
BRANCH  24  25
HETATM   25  O   UNK N   1     165.479 154.190 159.133  0.00  0.00    -0.400 OA
HETATM   26  H   UNK N   1     165.476 153.238 159.315  0.00  0.00     0.209 HD
ENDBRANCH  24  25
ENDBRANCH  21  24
ENDBRANCH  15  17
ENDBRANCH   1  15
BRANCH  10  27
HETATM   27  C   UNK N   1     167.828 153.191 149.610  0.00  0.00     0.417 C 
HETATM   28  F   UNK N   1     168.531 152.000 149.639  0.00  0.00    -0.166 F 
HETATM   29  F   UNK N   1     168.515 154.092 148.814  0.00  0.00    -0.166 F 
HETATM   30  F   UNK N   1     166.581 152.968 149.058  0.00  0.00    -0.166 F 
ENDBRANCH  10  27
TORSDOF 5
ENDMDL
