MODEL 1
REMARK VINA RESULT:      -7.1      0.000      0.000
REMARK  6 active torsions:
REMARK  status: ('A' for Active; 'I' for Inactive)
REMARK    1  A    between atoms: C_7  and  C_8 
REMARK    2  A    between atoms: C_11  and  N_12 
REMARK    3  A    between atoms: N_12  and  C_13 
REMARK    4  A    between atoms: C_13  and  C_14 
REMARK    5  A    between atoms: C_17  and  N_18 
REMARK    6  A    between atoms: C_21  and  C_22 
ROOT
HETATM    1  C   UNK N   1     167.573 157.429 153.488  0.00  0.00     0.158 C 
ENDROOT
BRANCH   1   2
HETATM    2  N   UNK N   1     167.175 157.775 154.833  0.00  0.00    -0.386 N 
HETATM    3  H   UNK N   1     167.817 158.223 155.430  0.00  0.00     0.160 HD
BRANCH   2   4
HETATM    4  C   UNK N   1     165.869 157.479 155.304  0.00  0.00     0.028 A 
HETATM    5  C   UNK N   1     164.761 157.551 154.445  0.00  0.00     0.030 A 
HETATM    6  C   UNK N   1     163.486 157.222 154.909  0.00  0.00     0.018 A 
HETATM    7  C   UNK N   1     163.304 156.801 156.230  0.00  0.00     0.017 A 
HETATM    8  C   UNK N   1     164.408 156.726 157.091  0.00  0.00     0.018 A 
HETATM    9  C   UNK N   1     165.685 157.070 156.631  0.00  0.00     0.030 A 
BRANCH   7  10
HETATM   10  C   UNK N   1     161.958 156.441 156.697  0.00  0.00     0.174 A 
HETATM   11  N   UNK N   1     161.242 155.385 156.256  0.00  0.00    -0.277 N 
HETATM   12  N   UNK N   1     160.095 155.405 156.916  0.00  0.00    -0.281 N 
ATOM     13  HN  UNK N   1     161.530 154.706 155.551  1.00  0.00     0.189 HD
HETATM   14  C   UNK N   1     160.143 156.468 157.739  0.00  0.00     0.136 A 
ATOM     15  HN  UNK N   1     159.324 154.743 156.818  1.00  0.00     0.189 HD
HETATM   16  C   UNK N   1     159.058 156.860 158.677  0.00  0.00     0.099 C 
HETATM   17  O   UNK N   1     161.281 157.103 157.605  0.00  0.00    -0.278 OA
ENDBRANCH   7  10
ENDBRANCH   2   4
ENDBRANCH   1   2
BRANCH   1  18
HETATM   18  C   UNK N   1     168.018 156.009 153.321  0.00  0.00    -0.040 A 
HETATM   19  C   UNK N   1     169.086 155.574 154.106  0.00  0.00     0.011 A 
HETATM   20  C   UNK N   1     169.536 154.259 154.024  0.00  0.00     0.032 A 
HETATM   21  C   UNK N   1     168.932 153.356 153.143  0.00  0.00     0.056 A 
HETATM   22  C   UNK N   1     167.865 153.791 152.335  0.00  0.00     0.032 A 
HETATM   23  C   UNK N   1     167.406 155.114 152.427  0.00  0.00     0.011 A 
BRANCH  21  24
HETATM   24  N   UNK N   1     169.370 151.989 153.125  0.00  0.00    -0.267 N 
HETATM   25  C   UNK N   1     170.468 151.482 153.724  0.00  0.00     0.119 A 
HETATM   26  C   UNK N   1     170.555 150.137 153.392  0.00  0.00     0.055 A 
HETATM   27  C   UNK N   1     169.465 149.913 152.568  0.00  0.00     0.134 A 
HETATM   28  N   UNK N   1     168.761 151.046 152.429  0.00  0.00    -0.290 N 
ATOM     29  HN  UNK N   1     167.907 151.159 151.883  1.00  0.00     0.187 HD
BRANCH  27  30
HETATM   30  C   UNK N   1     169.121 148.640 151.863  0.00  0.00     0.434 C 
HETATM   31  F   UNK N   1     169.806 148.566 150.665  0.00  0.00    -0.165 F 
HETATM   32  F   UNK N   1     167.762 148.568 151.617  0.00  0.00    -0.165 F 
HETATM   33  F   UNK N   1     169.490 147.572 152.661  0.00  0.00    -0.165 F 
ENDBRANCH  27  30
ENDBRANCH  21  24
ENDBRANCH   1  18
TORSDOF 6
ENDMDL
MODEL 2
REMARK VINA RESULT:      -6.9      1.325      1.991
REMARK  6 active torsions:
REMARK  status: ('A' for Active; 'I' for Inactive)
REMARK    1  A    between atoms: C_7  and  C_8 
REMARK    2  A    between atoms: C_11  and  N_12 
REMARK    3  A    between atoms: N_12  and  C_13 
REMARK    4  A    between atoms: C_13  and  C_14 
REMARK    5  A    between atoms: C_17  and  N_18 
REMARK    6  A    between atoms: C_21  and  C_22 
ROOT
HETATM    1  C   UNK N   1     167.777 156.780 154.342  0.00  0.00     0.158 C 
ENDROOT
BRANCH   1   2
HETATM    2  N   UNK N   1     166.567 157.493 154.004  0.00  0.00    -0.386 N 
HETATM    3  H   UNK N   1     166.577 158.148 153.270  0.00  0.00     0.160 HD
BRANCH   2   4
HETATM    4  C   UNK N   1     165.363 157.260 154.719  0.00  0.00     0.028 A 
HETATM    5  C   UNK N   1     164.505 156.207 154.358  0.00  0.00     0.030 A 
HETATM    6  C   UNK N   1     163.342 155.964 155.089  0.00  0.00     0.018 A 
HETATM    7  C   UNK N   1     163.028 156.755 156.199  0.00  0.00     0.017 A 
HETATM    8  C   UNK N   1     163.882 157.805 156.564  0.00  0.00     0.018 A 
HETATM    9  C   UNK N   1     165.043 158.060 155.822  0.00  0.00     0.030 A 
BRANCH   7  10
HETATM   10  C   UNK N   1     161.808 156.473 156.969  0.00  0.00     0.174 A 
HETATM   11  N   UNK N   1     161.708 155.554 157.951  0.00  0.00    -0.277 N 
HETATM   12  N   UNK N   1     160.461 155.606 158.392  0.00  0.00    -0.281 N 
ATOM     13  HN  UNK N   1     162.450 154.939 158.288  1.00  0.00     0.189 HD
HETATM   14  C   UNK N   1     159.838 156.554 157.669  0.00  0.00     0.136 A 
ATOM     15  HN  UNK N   1     160.053 155.037 159.134  1.00  0.00     0.189 HD
HETATM   16  C   UNK N   1     158.415 156.949 157.842  0.00  0.00     0.099 C 
HETATM   17  O   UNK N   1     160.660 157.084 156.798  0.00  0.00    -0.278 OA
ENDBRANCH   7  10
ENDBRANCH   2   4
ENDBRANCH   1   2
BRANCH   1  18
HETATM   18  C   UNK N   1     167.973 155.502 153.586  0.00  0.00    -0.040 A 
HETATM   19  C   UNK N   1     167.356 155.391 152.340  0.00  0.00     0.011 A 
HETATM   20  C   UNK N   1     167.518 154.242 151.570  0.00  0.00     0.032 A 
HETATM   21  C   UNK N   1     168.291 153.175 152.040  0.00  0.00     0.056 A 
HETATM   22  C   UNK N   1     168.903 153.272 153.303  0.00  0.00     0.032 A 
HETATM   23  C   UNK N   1     168.748 154.434 154.074  0.00  0.00     0.011 A 
BRANCH  21  24
HETATM   24  N   UNK N   1     168.496 152.030 151.200  0.00  0.00    -0.267 N 
HETATM   25  C   UNK N   1     168.256 151.944 149.874  0.00  0.00     0.119 A 
HETATM   26  C   UNK N   1     168.522 150.641 149.474  0.00  0.00     0.055 A 
HETATM   27  C   UNK N   1     168.908 149.994 150.636  0.00  0.00     0.134 A 
HETATM   28  N   UNK N   1     168.892 150.857 151.663  0.00  0.00    -0.290 N 
ATOM     29  HN  UNK N   1     169.141 150.647 152.629  1.00  0.00     0.187 HD
BRANCH  27  30
HETATM   30  C   UNK N   1     169.236 148.543 150.788  0.00  0.00     0.434 C 
HETATM   31  F   UNK N   1     168.368 147.956 151.688  0.00  0.00    -0.165 F 
HETATM   32  F   UNK N   1     170.536 148.379 151.233  0.00  0.00    -0.165 F 
HETATM   33  F   UNK N   1     169.102 147.923 149.560  0.00  0.00    -0.165 F 
ENDBRANCH  27  30
ENDBRANCH  21  24
ENDBRANCH   1  18
TORSDOF 6
ENDMDL
MODEL 3
REMARK VINA RESULT:      -6.8      3.554      4.158
REMARK  6 active torsions:
REMARK  status: ('A' for Active; 'I' for Inactive)
REMARK    1  A    between atoms: C_7  and  C_8 
REMARK    2  A    between atoms: C_11  and  N_12 
REMARK    3  A    between atoms: N_12  and  C_13 
REMARK    4  A    between atoms: C_13  and  C_14 
REMARK    5  A    between atoms: C_17  and  N_18 
REMARK    6  A    between atoms: C_21  and  C_22 
ROOT
HETATM    1  C   UNK N   1     167.229 154.532 156.157  0.00  0.00     0.158 C 
ENDROOT
BRANCH   1   2
HETATM    2  N   UNK N   1     168.037 155.677 156.509  0.00  0.00    -0.386 N 
HETATM    3  H   UNK N   1     168.988 155.552 156.730  0.00  0.00     0.160 HD
BRANCH   2   4
HETATM    4  C   UNK N   1     167.477 156.981 156.539  0.00  0.00     0.028 A 
HETATM    5  C   UNK N   1     166.698 157.453 155.470  0.00  0.00     0.030 A 
HETATM    6  C   UNK N   1     166.122 158.723 155.524  0.00  0.00     0.018 A 
HETATM    7  C   UNK N   1     166.300 159.531 156.653  0.00  0.00     0.017 A 
HETATM    8  C   UNK N   1     167.076 159.062 157.723  0.00  0.00     0.018 A 
HETATM    9  C   UNK N   1     167.667 157.794 157.662  0.00  0.00     0.030 A 
BRANCH   7  10
HETATM   10  C   UNK N   1     165.671 160.858 156.702  0.00  0.00     0.174 A 
HETATM   11  N   UNK N   1     166.330 162.031 156.613  0.00  0.00    -0.277 N 
HETATM   12  N   UNK N   1     165.416 162.985 156.697  0.00  0.00    -0.281 N 
ATOM     13  HN  UNK N   1     167.337 162.157 156.504  1.00  0.00     0.189 HD
HETATM   14  C   UNK N   1     164.228 162.368 156.832  0.00  0.00     0.136 A 
ATOM     15  HN  UNK N   1     165.581 163.992 156.666  1.00  0.00     0.189 HD
HETATM   16  C   UNK N   1     162.921 163.068 156.951  0.00  0.00     0.099 C 
HETATM   17  O   UNK N   1     164.383 161.067 156.836  0.00  0.00    -0.278 OA
ENDBRANCH   7  10
ENDBRANCH   2   4
ENDBRANCH   1   2
BRANCH   1  18
HETATM   18  C   UNK N   1     167.815 153.669 155.083  0.00  0.00    -0.040 A 
HETATM   19  C   UNK N   1     168.281 152.408 155.456  0.00  0.00     0.011 A 
HETATM   20  C   UNK N   1     168.813 151.540 154.505  0.00  0.00     0.032 A 
HETATM   21  C   UNK N   1     168.900 151.925 153.163  0.00  0.00     0.056 A 
HETATM   22  C   UNK N   1     168.448 153.202 152.782  0.00  0.00     0.032 A 
HETATM   23  C   UNK N   1     167.903 154.071 153.739  0.00  0.00     0.011 A 
BRANCH  21  24
HETATM   24  N   UNK N   1     169.391 150.989 152.192  0.00  0.00    -0.267 N 
HETATM   25  C   UNK N   1     170.588 150.366 152.200  0.00  0.00     0.119 A 
HETATM   26  C   UNK N   1     170.684 149.606 151.042  0.00  0.00     0.055 A 
HETATM   27  C   UNK N   1     169.492 149.840 150.375  0.00  0.00     0.134 A 
HETATM   28  N   UNK N   1     168.726 150.672 151.095  0.00  0.00    -0.290 N 
ATOM     29  HN  UNK N   1     167.794 151.002 150.842  1.00  0.00     0.187 HD
BRANCH  27  30
HETATM   30  C   UNK N   1     169.102 149.322 149.028  0.00  0.00     0.434 C 
HETATM   31  F   UNK N   1     170.008 148.365 148.611  0.00  0.00    -0.165 F 
HETATM   32  F   UNK N   1     169.064 150.348 148.101  0.00  0.00    -0.165 F 
HETATM   33  F   UNK N   1     167.847 148.749 149.114  0.00  0.00    -0.165 F 
ENDBRANCH  27  30
ENDBRANCH  21  24
ENDBRANCH   1  18
TORSDOF 6
ENDMDL
MODEL 4
REMARK VINA RESULT:      -6.8      2.604      3.196
REMARK  6 active torsions:
REMARK  status: ('A' for Active; 'I' for Inactive)
REMARK    1  A    between atoms: C_7  and  C_8 
REMARK    2  A    between atoms: C_11  and  N_12 
REMARK    3  A    between atoms: N_12  and  C_13 
REMARK    4  A    between atoms: C_13  and  C_14 
REMARK    5  A    between atoms: C_17  and  N_18 
REMARK    6  A    between atoms: C_21  and  C_22 
ROOT
HETATM    1  C   UNK N   1     169.046 156.388 153.868  0.00  0.00     0.158 C 
ENDROOT
BRANCH   1   2
HETATM    2  N   UNK N   1     167.918 157.047 153.250  0.00  0.00    -0.386 N 
HETATM    3  H   UNK N   1     168.021 157.456 152.361  0.00  0.00     0.160 HD
BRANCH   2   4
HETATM    4  C   UNK N   1     166.662 157.109 153.909  0.00  0.00     0.028 A 
HETATM    5  C   UNK N   1     166.484 157.922 155.041  0.00  0.00     0.030 A 
HETATM    6  C   UNK N   1     165.236 158.004 155.659  0.00  0.00     0.018 A 
HETATM    7  C   UNK N   1     164.146 157.292 155.148  0.00  0.00     0.017 A 
HETATM    8  C   UNK N   1     164.319 156.482 154.017  0.00  0.00     0.018 A 
HETATM    9  C   UNK N   1     165.576 156.386 153.404  0.00  0.00     0.030 A 
BRANCH   7  10
HETATM   10  C   UNK N   1     162.835 157.406 155.801  0.00  0.00     0.174 A 
HETATM   11  N   UNK N   1     161.991 158.450 155.667  0.00  0.00    -0.277 N 
HETATM   12  N   UNK N   1     160.928 158.173 156.405  0.00  0.00    -0.281 N 
ATOM     13  HN  UNK N   1     162.145 159.289 155.107  1.00  0.00     0.189 HD
HETATM   14  C   UNK N   1     161.151 156.971 156.965  0.00  0.00     0.136 A 
ATOM     15  HN  UNK N   1     160.100 158.758 156.526  1.00  0.00     0.189 HD
HETATM   16  C   UNK N   1     160.201 156.269 157.869  0.00  0.00     0.099 C 
HETATM   17  O   UNK N   1     162.318 156.501 156.597  0.00  0.00    -0.278 OA
ENDBRANCH   7  10
ENDBRANCH   2   4
ENDBRANCH   1   2
BRANCH   1  18
HETATM   18  C   UNK N   1     168.825 154.939 154.173  0.00  0.00    -0.040 A 
HETATM   19  C   UNK N   1     168.872 154.042 153.106  0.00  0.00     0.011 A 
HETATM   20  C   UNK N   1     168.703 152.677 153.320  0.00  0.00     0.032 A 
HETATM   21  C   UNK N   1     168.470 152.184 154.608  0.00  0.00     0.056 A 
HETATM   22  C   UNK N   1     168.404 153.083 155.688  0.00  0.00     0.032 A 
HETATM   23  C   UNK N   1     168.585 154.458 155.473  0.00  0.00     0.011 A 
BRANCH  21  24
HETATM   24  N   UNK N   1     168.365 150.767 154.812  0.00  0.00    -0.267 N 
HETATM   25  C   UNK N   1     168.509 149.801 153.880  0.00  0.00     0.119 A 
HETATM   26  C   UNK N   1     168.255 148.579 154.487  0.00  0.00     0.055 A 
HETATM   27  C   UNK N   1     167.949 148.901 155.799  0.00  0.00     0.134 A 
HETATM   28  N   UNK N   1     168.030 150.228 155.971  0.00  0.00    -0.290 N 
ATOM     29  HN  UNK N   1     167.864 150.732 156.842  1.00  0.00     0.187 HD
BRANCH  27  30
HETATM   30  C   UNK N   1     167.521 147.957 156.876  0.00  0.00     0.434 C 
HETATM   31  F   UNK N   1     168.308 148.135 157.998  0.00  0.00    -0.165 F 
HETATM   32  F   UNK N   1     167.624 146.645 156.449  0.00  0.00    -0.165 F 
HETATM   33  F   UNK N   1     166.203 148.219 157.204  0.00  0.00    -0.165 F 
ENDBRANCH  27  30
ENDBRANCH  21  24
ENDBRANCH   1  18
TORSDOF 6
ENDMDL
MODEL 5
REMARK VINA RESULT:      -6.8      1.635      2.040
REMARK  6 active torsions:
REMARK  status: ('A' for Active; 'I' for Inactive)
REMARK    1  A    between atoms: C_7  and  C_8 
REMARK    2  A    between atoms: C_11  and  N_12 
REMARK    3  A    between atoms: N_12  and  C_13 
REMARK    4  A    between atoms: C_13  and  C_14 
REMARK    5  A    between atoms: C_17  and  N_18 
REMARK    6  A    between atoms: C_21  and  C_22 
ROOT
HETATM    1  C   UNK N   1     166.097 156.794 153.280  0.00  0.00     0.158 C 
ENDROOT
BRANCH   1   2
HETATM    2  N   UNK N   1     164.668 156.587 153.230  0.00  0.00    -0.386 N 
HETATM    3  H   UNK N   1     164.205 156.594 152.361  0.00  0.00     0.160 HD
BRANCH   2   4
HETATM    4  C   UNK N   1     163.922 156.371 154.419  0.00  0.00     0.028 A 
HETATM    5  C   UNK N   1     163.615 155.070 154.848  0.00  0.00     0.030 A 
HETATM    6  C   UNK N   1     162.913 154.868 156.037  0.00  0.00     0.018 A 
HETATM    7  C   UNK N   1     162.524 155.959 156.821  0.00  0.00     0.017 A 
HETATM    8  C   UNK N   1     162.830 157.260 156.396  0.00  0.00     0.018 A 
HETATM    9  C   UNK N   1     163.521 157.465 155.195  0.00  0.00     0.030 A 
BRANCH   7  10
HETATM   10  C   UNK N   1     161.801 155.727 158.080  0.00  0.00     0.174 A 
HETATM   11  N   UNK N   1     160.461 155.768 158.222  0.00  0.00    -0.277 N 
HETATM   12  N   UNK N   1     160.207 155.507 159.494  0.00  0.00    -0.281 N 
ATOM     13  HN  UNK N   1     159.776 155.963 157.490  1.00  0.00     0.189 HD
HETATM   14  C   UNK N   1     161.398 155.313 160.091  0.00  0.00     0.136 A 
ATOM     15  HN  UNK N   1     159.288 155.462 159.936  1.00  0.00     0.189 HD
HETATM   16  C   UNK N   1     161.578 154.982 161.529  0.00  0.00     0.099 C 
HETATM   17  O   UNK N   1     162.373 155.449 159.227  0.00  0.00    -0.278 OA
ENDBRANCH   7  10
ENDBRANCH   2   4
ENDBRANCH   1   2
BRANCH   1  18
HETATM   18  C   UNK N   1     166.908 155.543 153.136  0.00  0.00    -0.040 A 
HETATM   19  C   UNK N   1     167.410 154.965 154.302  0.00  0.00     0.011 A 
HETATM   20  C   UNK N   1     168.149 153.786 154.246  0.00  0.00     0.032 A 
HETATM   21  C   UNK N   1     168.412 153.170 153.018  0.00  0.00     0.056 A 
HETATM   22  C   UNK N   1     167.924 153.757 151.835  0.00  0.00     0.032 A 
HETATM   23  C   UNK N   1     167.170 154.938 151.894  0.00  0.00     0.011 A 
BRANCH  21  24
HETATM   24  N   UNK N   1     169.119 151.922 152.993  0.00  0.00    -0.267 N 
HETATM   25  C   UNK N   1     170.256 151.621 153.656  0.00  0.00     0.119 A 
HETATM   26  C   UNK N   1     170.637 150.336 153.293  0.00  0.00     0.055 A 
HETATM   27  C   UNK N   1     169.672 149.933 152.384  0.00  0.00     0.134 A 
HETATM   28  N   UNK N   1     168.763 150.907 152.227  0.00  0.00    -0.290 N 
ATOM     29  HN  UNK N   1     167.941 150.869 151.623  1.00  0.00     0.187 HD
BRANCH  27  30
HETATM   30  C   UNK N   1     169.642 148.649 151.620  0.00  0.00     0.434 C 
HETATM   31  F   UNK N   1     168.409 148.042 151.768  0.00  0.00    -0.165 F 
HETATM   32  F   UNK N   1     170.630 147.790 152.065  0.00  0.00    -0.165 F 
HETATM   33  F   UNK N   1     169.854 148.920 150.280  0.00  0.00    -0.165 F 
ENDBRANCH  27  30
ENDBRANCH  21  24
ENDBRANCH   1  18
TORSDOF 6
ENDMDL
MODEL 6
REMARK VINA RESULT:      -6.5     12.132     13.344
REMARK  6 active torsions:
REMARK  status: ('A' for Active; 'I' for Inactive)
REMARK    1  A    between atoms: C_7  and  C_8 
REMARK    2  A    between atoms: C_11  and  N_12 
REMARK    3  A    between atoms: N_12  and  C_13 
REMARK    4  A    between atoms: C_13  and  C_14 
REMARK    5  A    between atoms: C_17  and  N_18 
REMARK    6  A    between atoms: C_21  and  C_22 
ROOT
HETATM    1  C   UNK N   1     163.613 146.988 164.033  0.00  0.00     0.158 C 
ENDROOT
BRANCH   1   2
HETATM    2  N   UNK N   1     163.380 147.465 165.377  0.00  0.00    -0.386 N 
HETATM    3  H   UNK N   1     163.464 146.842 166.135  0.00  0.00     0.160 HD
BRANCH   2   4
HETATM    4  C   UNK N   1     163.032 148.820 165.618  0.00  0.00     0.028 A 
HETATM    5  C   UNK N   1     163.912 149.859 165.278  0.00  0.00     0.030 A 
HETATM    6  C   UNK N   1     163.545 151.190 165.485  0.00  0.00     0.018 A 
HETATM    7  C   UNK N   1     162.289 151.500 166.018  0.00  0.00     0.017 A 
HETATM    8  C   UNK N   1     161.407 150.465 166.357  0.00  0.00     0.018 A 
HETATM    9  C   UNK N   1     161.780 149.129 166.163  0.00  0.00     0.030 A 
BRANCH   7  10
HETATM   10  C   UNK N   1     161.912 152.907 166.212  0.00  0.00     0.174 A 
HETATM   11  N   UNK N   1     162.625 153.810 166.916  0.00  0.00    -0.277 N 
HETATM   12  N   UNK N   1     161.958 154.951 166.853  0.00  0.00    -0.281 N 
ATOM     13  HN  UNK N   1     163.507 153.644 167.402  1.00  0.00     0.189 HD
HETATM   14  C   UNK N   1     160.860 154.713 166.113  0.00  0.00     0.136 A 
ATOM     15  HN  UNK N   1     162.224 155.838 167.282  1.00  0.00     0.189 HD
HETATM   16  C   UNK N   1     159.828 155.732 165.779  0.00  0.00     0.099 C 
HETATM   17  O   UNK N   1     160.829 153.464 165.722  0.00  0.00    -0.278 OA
ENDBRANCH   7  10
ENDBRANCH   2   4
ENDBRANCH   1   2
BRANCH   1  18
HETATM   18  C   UNK N   1     162.381 146.894 163.188  0.00  0.00    -0.040 A 
HETATM   19  C   UNK N   1     162.415 147.499 161.932  0.00  0.00     0.011 A 
HETATM   20  C   UNK N   1     161.315 147.427 161.081  0.00  0.00     0.032 A 
HETATM   21  C   UNK N   1     160.153 146.757 161.477  0.00  0.00     0.056 A 
HETATM   22  C   UNK N   1     160.104 146.158 162.750  0.00  0.00     0.032 A 
HETATM   23  C   UNK N   1     161.217 146.223 163.602  0.00  0.00     0.011 A 
BRANCH  21  24
HETATM   24  N   UNK N   1     159.058 146.641 160.557  0.00  0.00    -0.267 N 
HETATM   25  C   UNK N   1     159.096 146.112 159.316  0.00  0.00     0.119 A 
HETATM   26  C   UNK N   1     157.839 146.265 158.746  0.00  0.00     0.055 A 
HETATM   27  C   UNK N   1     157.096 146.916 159.717  0.00  0.00     0.134 A 
HETATM   28  N   UNK N   1     157.854 147.124 160.804  0.00  0.00    -0.290 N 
ATOM     29  HN  UNK N   1     157.554 147.576 161.669  1.00  0.00     0.187 HD
BRANCH  27  30
HETATM   30  C   UNK N   1     155.685 147.395 159.595  0.00  0.00     0.434 C 
HETATM   31  F   UNK N   1     155.018 147.203 160.791  0.00  0.00    -0.165 F 
HETATM   32  F   UNK N   1     155.023 146.717 158.588  0.00  0.00    -0.165 F 
HETATM   33  F   UNK N   1     155.695 148.745 159.295  0.00  0.00    -0.165 F 
ENDBRANCH  27  30
ENDBRANCH  21  24
ENDBRANCH   1  18
TORSDOF 6
ENDMDL
MODEL 7
REMARK VINA RESULT:      -6.4      1.916      2.488
REMARK  6 active torsions:
REMARK  status: ('A' for Active; 'I' for Inactive)
REMARK    1  A    between atoms: C_7  and  C_8 
REMARK    2  A    between atoms: C_11  and  N_12 
REMARK    3  A    between atoms: N_12  and  C_13 
REMARK    4  A    between atoms: C_13  and  C_14 
REMARK    5  A    between atoms: C_17  and  N_18 
REMARK    6  A    between atoms: C_21  and  C_22 
ROOT
HETATM    1  C   UNK N   1     167.440 155.998 155.864  0.00  0.00     0.158 C 
ENDROOT
BRANCH   1   2
HETATM    2  N   UNK N   1     166.647 155.309 156.856  0.00  0.00    -0.386 N 
HETATM    3  H   UNK N   1     167.077 154.654 157.453  0.00  0.00     0.160 HD
BRANCH   2   4
HETATM    4  C   UNK N   1     165.257 155.565 156.982  0.00  0.00     0.028 A 
HETATM    5  C   UNK N   1     164.784 156.545 157.870  0.00  0.00     0.030 A 
HETATM    6  C   UNK N   1     163.417 156.814 157.959  0.00  0.00     0.018 A 
HETATM    7  C   UNK N   1     162.508 156.122 157.153  0.00  0.00     0.017 A 
HETATM    8  C   UNK N   1     162.976 155.144 156.265  0.00  0.00     0.018 A 
HETATM    9  C   UNK N   1     164.346 154.862 156.185  0.00  0.00     0.030 A 
BRANCH   7  10
HETATM   10  C   UNK N   1     161.074 156.431 157.247  0.00  0.00     0.174 A 
HETATM   11  N   UNK N   1     160.080 155.638 156.797  0.00  0.00    -0.277 N 
HETATM   12  N   UNK N   1     158.945 156.264 157.068  0.00  0.00    -0.281 N 
ATOM     13  HN  UNK N   1     160.183 154.733 156.336  1.00  0.00     0.189 HD
HETATM   14  C   UNK N   1     159.279 157.417 157.675  0.00  0.00     0.136 A 
ATOM     15  HN  UNK N   1     158.002 155.936 156.856  1.00  0.00     0.189 HD
HETATM   16  C   UNK N   1     158.303 158.428 158.163  0.00  0.00     0.099 C 
HETATM   17  O   UNK N   1     160.580 157.521 157.785  0.00  0.00    -0.278 OA
ENDBRANCH   7  10
ENDBRANCH   2   4
ENDBRANCH   1   2
BRANCH   1  18
HETATM   18  C   UNK N   1     167.625 155.240 154.585  0.00  0.00    -0.040 A 
HETATM   19  C   UNK N   1     168.271 154.006 154.658  0.00  0.00     0.011 A 
HETATM   20  C   UNK N   1     168.453 153.235 153.513  0.00  0.00     0.032 A 
HETATM   21  C   UNK N   1     168.002 153.690 152.270  0.00  0.00     0.056 A 
HETATM   22  C   UNK N   1     167.364 154.942 152.186  0.00  0.00     0.032 A 
HETATM   23  C   UNK N   1     167.172 155.714 153.341  0.00  0.00     0.011 A 
BRANCH  21  24
HETATM   24  N   UNK N   1     168.142 152.848 151.117  0.00  0.00    -0.267 N 
HETATM   25  C   UNK N   1     167.859 153.172 149.837  0.00  0.00     0.119 A 
HETATM   26  C   UNK N   1     168.067 152.045 149.053  0.00  0.00     0.055 A 
HETATM   27  C   UNK N   1     168.466 151.069 149.951  0.00  0.00     0.134 A 
HETATM   28  N   UNK N   1     168.511 151.582 151.189  0.00  0.00    -0.290 N 
ATOM     29  HN  UNK N   1     168.782 151.083 152.037  1.00  0.00     0.187 HD
BRANCH  27  30
HETATM   30  C   UNK N   1     168.749 149.632 149.646  0.00  0.00     0.434 C 
HETATM   31  F   UNK N   1     169.002 149.479 148.295  0.00  0.00    -0.165 F 
HETATM   32  F   UNK N   1     167.677 148.835 150.003  0.00  0.00    -0.165 F 
HETATM   33  F   UNK N   1     169.863 149.233 150.362  0.00  0.00    -0.165 F 
ENDBRANCH  27  30
ENDBRANCH  21  24
ENDBRANCH   1  18
TORSDOF 6
ENDMDL
MODEL 8
REMARK VINA RESULT:      -6.4      6.576     10.121
REMARK  6 active torsions:
REMARK  status: ('A' for Active; 'I' for Inactive)
REMARK    1  A    between atoms: C_7  and  C_8 
REMARK    2  A    between atoms: C_11  and  N_12 
REMARK    3  A    between atoms: N_12  and  C_13 
REMARK    4  A    between atoms: C_13  and  C_14 
REMARK    5  A    between atoms: C_17  and  N_18 
REMARK    6  A    between atoms: C_21  and  C_22 
ROOT
HETATM    1  C   UNK N   1     167.154 155.066 152.924  0.00  0.00     0.158 C 
ENDROOT
BRANCH   1   2
HETATM    2  N   UNK N   1     168.406 154.355 153.042  0.00  0.00    -0.386 N 
HETATM    3  H   UNK N   1     169.235 154.771 152.712  0.00  0.00     0.160 HD
BRANCH   2   4
HETATM    4  C   UNK N   1     168.456 153.064 153.631  0.00  0.00     0.028 A 
HETATM    5  C   UNK N   1     167.846 152.816 154.871  0.00  0.00     0.030 A 
HETATM    6  C   UNK N   1     167.870 151.534 155.424  0.00  0.00     0.018 A 
HETATM    7  C   UNK N   1     168.487 150.482 154.739  0.00  0.00     0.017 A 
HETATM    8  C   UNK N   1     169.096 150.726 153.500  0.00  0.00     0.018 A 
HETATM    9  C   UNK N   1     169.086 152.015 152.951  0.00  0.00     0.030 A 
BRANCH   7  10
HETATM   10  C   UNK N   1     168.487 149.135 155.327  0.00  0.00     0.174 A 
HETATM   11  N   UNK N   1     167.398 148.351 155.465  0.00  0.00    -0.277 N 
HETATM   12  N   UNK N   1     167.810 147.228 156.031  0.00  0.00    -0.281 N 
ATOM     13  HN  UNK N   1     166.443 148.581 155.187  1.00  0.00     0.189 HD
HETATM   14  C   UNK N   1     169.136 147.358 156.221  0.00  0.00     0.136 A 
ATOM     15  HN  UNK N   1     167.234 146.422 156.276  1.00  0.00     0.189 HD
HETATM   16  C   UNK N   1     170.009 146.317 156.825  0.00  0.00     0.099 C 
HETATM   17  O   UNK N   1     169.550 148.524 155.792  0.00  0.00    -0.278 OA
ENDBRANCH   7  10
ENDBRANCH   2   4
ENDBRANCH   1   2
BRANCH   1  18
HETATM   18  C   UNK N   1     167.002 156.213 153.875  0.00  0.00    -0.040 A 
HETATM   19  C   UNK N   1     166.349 157.354 153.407  0.00  0.00     0.011 A 
HETATM   20  C   UNK N   1     166.147 158.447 154.245  0.00  0.00     0.032 A 
HETATM   21  C   UNK N   1     166.607 158.424 155.566  0.00  0.00     0.056 A 
HETATM   22  C   UNK N   1     167.281 157.284 156.041  0.00  0.00     0.032 A 
HETATM   23  C   UNK N   1     167.474 156.179 155.199  0.00  0.00     0.011 A 
BRANCH  21  24
HETATM   24  N   UNK N   1     166.328 159.537 156.429  0.00  0.00    -0.267 N 
HETATM   25  C   UNK N   1     166.750 159.702 157.700  0.00  0.00     0.119 A 
HETATM   26  C   UNK N   1     166.193 160.876 158.188  0.00  0.00     0.055 A 
HETATM   27  C   UNK N   1     165.427 161.357 157.139  0.00  0.00     0.134 A 
HETATM   28  N   UNK N   1     165.532 160.534 156.086  0.00  0.00    -0.290 N 
ATOM     29  HN  UNK N   1     165.079 160.656 155.180  1.00  0.00     0.187 HD
BRANCH  27  30
HETATM   30  C   UNK N   1     164.548 162.566 157.153  0.00  0.00     0.434 C 
HETATM   31  F   UNK N   1     164.784 163.333 156.027  0.00  0.00    -0.165 F 
HETATM   32  F   UNK N   1     164.781 163.330 158.282  0.00  0.00    -0.165 F 
HETATM   33  F   UNK N   1     163.226 162.159 157.152  0.00  0.00    -0.165 F 
ENDBRANCH  27  30
ENDBRANCH  21  24
ENDBRANCH   1  18
TORSDOF 6
ENDMDL
MODEL 9
REMARK VINA RESULT:      -6.4     11.358     13.500
REMARK  6 active torsions:
REMARK  status: ('A' for Active; 'I' for Inactive)
REMARK    1  A    between atoms: C_7  and  C_8 
REMARK    2  A    between atoms: C_11  and  N_12 
REMARK    3  A    between atoms: N_12  and  C_13 
REMARK    4  A    between atoms: C_13  and  C_14 
REMARK    5  A    between atoms: C_17  and  N_18 
REMARK    6  A    between atoms: C_21  and  C_22 
ROOT
HETATM    1  C   UNK N   1     158.810 144.958 162.756  0.00  0.00     0.158 C 
ENDROOT
BRANCH   1   2
HETATM    2  N   UNK N   1     159.070 145.833 163.876  0.00  0.00    -0.386 N 
HETATM    3  H   UNK N   1     158.380 145.957 164.566  0.00  0.00     0.160 HD
BRANCH   2   4
HETATM    4  C   UNK N   1     160.310 146.514 163.994  0.00  0.00     0.028 A 
HETATM    5  C   UNK N   1     161.427 146.108 163.246  0.00  0.00     0.030 A 
HETATM    6  C   UNK N   1     162.631 146.807 163.343  0.00  0.00     0.018 A 
HETATM    7  C   UNK N   1     162.731 147.929 164.173  0.00  0.00     0.017 A 
HETATM    8  C   UNK N   1     161.618 148.338 164.919  0.00  0.00     0.018 A 
HETATM    9  C   UNK N   1     160.413 147.628 164.835  0.00  0.00     0.030 A 
BRANCH   7  10
HETATM   10  C   UNK N   1     164.001 148.665 164.248  0.00  0.00     0.174 A 
HETATM   11  N   UNK N   1     165.153 148.284 163.657  0.00  0.00    -0.277 N 
HETATM   12  N   UNK N   1     166.055 149.204 163.959  0.00  0.00    -0.281 N 
ATOM     13  HN  UNK N   1     165.299 147.448 163.090  1.00  0.00     0.189 HD
HETATM   14  C   UNK N   1     165.429 150.119 164.721  0.00  0.00     0.136 A 
ATOM     15  HN  UNK N   1     167.033 149.216 163.670  1.00  0.00     0.189 HD
HETATM   16  C   UNK N   1     166.073 151.340 165.276  0.00  0.00     0.099 C 
HETATM   17  O   UNK N   1     164.174 149.790 164.900  0.00  0.00    -0.278 OA
ENDBRANCH   7  10
ENDBRANCH   2   4
ENDBRANCH   1   2
BRANCH   1  18
HETATM   18  C   UNK N   1     158.396 145.666 161.502  0.00  0.00    -0.040 A 
HETATM   19  C   UNK N   1     159.339 145.768 160.480  0.00  0.00     0.011 A 
HETATM   20  C   UNK N   1     159.013 146.387 159.276  0.00  0.00     0.032 A 
HETATM   21  C   UNK N   1     157.739 146.929 159.078  0.00  0.00     0.056 A 
HETATM   22  C   UNK N   1     156.787 146.846 160.111  0.00  0.00     0.032 A 
HETATM   23  C   UNK N   1     157.113 146.212 161.319  0.00  0.00     0.011 A 
BRANCH  21  24
HETATM   24  N   UNK N   1     157.408 147.504 157.805  0.00  0.00    -0.267 N 
HETATM   25  C   UNK N   1     156.513 148.486 157.568  0.00  0.00     0.119 A 
HETATM   26  C   UNK N   1     156.450 148.686 156.196  0.00  0.00     0.055 A 
HETATM   27  C   UNK N   1     157.339 147.764 155.670  0.00  0.00     0.134 A 
HETATM   28  N   UNK N   1     157.910 147.067 156.664  0.00  0.00    -0.290 N 
ATOM     29  HN  UNK N   1     158.609 146.332 156.558  1.00  0.00     0.187 HD
BRANCH  27  30
HETATM   30  C   UNK N   1     157.605 147.499 154.223  0.00  0.00     0.434 C 
HETATM   31  F   UNK N   1     158.113 148.636 153.622  0.00  0.00    -0.165 F 
HETATM   32  F   UNK N   1     156.445 147.119 153.573  0.00  0.00    -0.165 F 
HETATM   33  F   UNK N   1     158.533 146.479 154.117  0.00  0.00    -0.165 F 
ENDBRANCH  27  30
ENDBRANCH  21  24
ENDBRANCH   1  18
TORSDOF 6
ENDMDL
