MODEL 1
REMARK VINA RESULT:      -6.9      0.000      0.000
REMARK  6 active torsions:
REMARK  status: ('A' for Active; 'I' for Inactive)
REMARK    1  A    between atoms: C_8  and  C_7 
REMARK       I    between atoms: N_10  and  C_11 
REMARK    2  A    between atoms: C_11  and  C_13 
REMARK    3  A    between atoms: C_14  and  C_15 
REMARK    4  A    between atoms: C_18  and  O_19 
REMARK    5  A    between atoms: O_19  and  C_20 
REMARK    6  A    between atoms: C_20  and  C_21 
REMARK       I    between atoms: C_21  and  N_22 
ROOT
HETATM    1  C   UNK N   1     165.739 158.637 157.502  0.00  0.00     0.172 C 
HETATM    2  C   UNK N   1     165.473 158.776 156.003  0.00  0.00     0.163 C 
HETATM    3  N   UNK N   1     165.633 157.495 155.321  0.00  0.00    -0.344 N 
HETATM    4  C   UNK N   1     165.586 157.469 153.943  0.00  0.00     0.243 C 
HETATM    5  O   UNK N   1     165.386 158.512 153.332  0.00  0.00    -0.268 OA
HETATM    6  C   UNK N   1     165.801 156.258 156.095  0.00  0.00     0.152 C 
HETATM    7  C   UNK N   1     165.832 156.459 157.613  0.00  0.00     0.188 C 
HETATM    8  O   UNK N   1     165.022 157.537 157.976  0.00  0.00    -0.378 OA
ENDROOT
BRANCH   4   9
HETATM    9  C   UNK N   1     165.793 156.235 153.127  0.00  0.00     0.075 C 
HETATM   10  C   UNK N   1     166.981 155.902 152.627  0.00  0.00     0.017 C 
BRANCH  10  11
HETATM   11  C   UNK N   1     167.269 154.759 151.767  0.00  0.00    -0.036 A 
HETATM   12  C   UNK N   1     168.076 153.686 152.170  0.00  0.00     0.014 A 
HETATM   13  C   UNK N   1     168.272 152.601 151.304  0.00  0.00     0.037 A 
HETATM   14  C   UNK N   1     167.663 152.586 150.042  0.00  0.00     0.069 A 
HETATM   15  C   UNK N   1     166.868 153.674 149.649  0.00  0.00     0.037 A 
HETATM   16  C   UNK N   1     166.672 154.748 150.507  0.00  0.00     0.014 A 
BRANCH  14  17
HETATM   17  O   UNK N   1     167.837 151.517 149.226  0.00  0.00    -0.342 OA
BRANCH  17  18
HETATM   18  C   UNK N   1     169.004 150.770 149.187  0.00  0.00     0.278 C 
BRANCH  18  19
HETATM   19  C   UNK N   1     168.740 149.288 149.169  0.00  0.00     0.239 C 
HETATM   20  N   UNK N   1     169.761 148.435 148.961  0.00  0.00    -0.368 N 
HETATM   21  H   UNK N   1     170.674 148.783 148.831  0.00  0.00     0.159 HD
HETATM   22  H   UNK N   1     169.597 147.465 148.941  0.00  0.00     0.159 HD
HETATM   23  O   UNK N   1     167.612 148.849 149.330  0.00  0.00    -0.271 OA
ENDBRANCH  18  19
ENDBRANCH  17  18
ENDBRANCH  14  17
ENDBRANCH  10  11
ENDBRANCH   4   9
BRANCH   1  24
HETATM   24  C   UNK N   1     165.482 159.862 158.336  0.00  0.00    -0.022 A 
HETATM   25  C   UNK N   1     164.176 160.186 158.735  0.00  0.00     0.010 A 
HETATM   26  C   UNK N   1     163.930 161.331 159.495  0.00  0.00     0.001 A 
HETATM   27  C   UNK N   1     164.988 162.165 159.862  0.00  0.00     0.001 A 
HETATM   28  C   UNK N   1     166.292 161.856 159.469  0.00  0.00     0.007 A 
HETATM   29  C   UNK N   1     166.547 160.711 158.709  0.00  0.00    -0.053 A 
HETATM   30  C   UNK N   1     167.954 160.425 158.299  0.00  0.00     0.049 C 
ENDBRANCH   1  24
TORSDOF 6
ENDMDL
MODEL 2
REMARK VINA RESULT:      -6.4     13.611     17.162
REMARK  6 active torsions:
REMARK  status: ('A' for Active; 'I' for Inactive)
REMARK    1  A    between atoms: C_8  and  C_7 
REMARK       I    between atoms: N_10  and  C_11 
REMARK    2  A    between atoms: C_11  and  C_13 
REMARK    3  A    between atoms: C_14  and  C_15 
REMARK    4  A    between atoms: C_18  and  O_19 
REMARK    5  A    between atoms: O_19  and  C_20 
REMARK    6  A    between atoms: C_20  and  C_21 
REMARK       I    between atoms: C_21  and  N_22 
ROOT
HETATM    1  C   UNK N   1     155.103 145.651 151.722  0.00  0.00     0.172 C 
HETATM    2  C   UNK N   1     156.465 145.163 152.216  0.00  0.00     0.163 C 
HETATM    3  N   UNK N   1     156.717 145.608 153.583  0.00  0.00    -0.344 N 
HETATM    4  C   UNK N   1     157.965 145.393 154.129  0.00  0.00     0.243 C 
HETATM    5  O   UNK N   1     158.815 144.812 153.465  0.00  0.00    -0.268 OA
HETATM    6  C   UNK N   1     155.647 146.237 154.368  0.00  0.00     0.152 C 
HETATM    7  C   UNK N   1     154.323 146.403 153.616  0.00  0.00     0.188 C 
HETATM    8  O   UNK N   1     154.151 145.363 152.701  0.00  0.00    -0.378 OA
ENDROOT
BRANCH   4   9
HETATM    9  C   UNK N   1     158.366 145.851 155.493  0.00  0.00     0.075 C 
HETATM   10  C   UNK N   1     158.340 145.045 156.552  0.00  0.00     0.017 C 
BRANCH  10  11
HETATM   11  C   UNK N   1     158.646 145.415 157.930  0.00  0.00    -0.036 A 
HETATM   12  C   UNK N   1     158.565 146.733 158.400  0.00  0.00     0.014 A 
HETATM   13  C   UNK N   1     158.832 147.007 159.749  0.00  0.00     0.037 A 
HETATM   14  C   UNK N   1     159.178 145.968 160.624  0.00  0.00     0.069 A 
HETATM   15  C   UNK N   1     159.268 144.657 160.135  0.00  0.00     0.037 A 
HETATM   16  C   UNK N   1     159.000 144.385 158.799  0.00  0.00     0.014 A 
BRANCH  14  17
HETATM   17  O   UNK N   1     159.405 146.243 161.933  0.00  0.00    -0.342 OA
BRANCH  17  18
HETATM   18  C   UNK N   1     160.262 147.244 162.364  0.00  0.00     0.278 C 
BRANCH  18  19
HETATM   19  C   UNK N   1     161.668 146.749 162.574  0.00  0.00     0.239 C 
HETATM   20  N   UNK N   1     162.684 147.342 161.917  0.00  0.00    -0.368 N 
HETATM   21  H   UNK N   1     162.504 148.099 161.313  0.00  0.00     0.159 HD
HETATM   22  H   UNK N   1     163.606 147.020 162.043  0.00  0.00     0.159 HD
HETATM   23  O   UNK N   1     161.899 145.812 163.322  0.00  0.00    -0.271 OA
ENDBRANCH  18  19
ENDBRANCH  17  18
ENDBRANCH  14  17
ENDBRANCH  10  11
ENDBRANCH   4   9
BRANCH   1  24
HETATM   24  C   UNK N   1     154.671 145.149 150.371  0.00  0.00    -0.022 A 
HETATM   25  C   UNK N   1     154.395 143.787 150.176  0.00  0.00     0.010 A 
HETATM   26  C   UNK N   1     154.010 143.315 148.919  0.00  0.00     0.001 A 
HETATM   27  C   UNK N   1     153.898 144.200 147.845  0.00  0.00     0.001 A 
HETATM   28  C   UNK N   1     154.172 145.557 148.025  0.00  0.00     0.007 A 
HETATM   29  C   UNK N   1     154.558 146.039 149.279  0.00  0.00    -0.053 A 
HETATM   30  C   UNK N   1     154.854 147.495 149.425  0.00  0.00     0.049 C 
ENDBRANCH   1  24
TORSDOF 6
ENDMDL
MODEL 3
REMARK VINA RESULT:      -6.3      2.699     11.093
REMARK  6 active torsions:
REMARK  status: ('A' for Active; 'I' for Inactive)
REMARK    1  A    between atoms: C_8  and  C_7 
REMARK       I    between atoms: N_10  and  C_11 
REMARK    2  A    between atoms: C_11  and  C_13 
REMARK    3  A    between atoms: C_14  and  C_15 
REMARK    4  A    between atoms: C_18  and  O_19 
REMARK    5  A    between atoms: O_19  and  C_20 
REMARK    6  A    between atoms: C_20  and  C_21 
REMARK       I    between atoms: C_21  and  N_22 
ROOT
HETATM    1  C   UNK N   1     168.741 151.464 152.207  0.00  0.00     0.172 C 
HETATM    2  C   UNK N   1     168.210 152.805 151.700  0.00  0.00     0.163 C 
HETATM    3  N   UNK N   1     168.114 153.775 152.787  0.00  0.00    -0.344 N 
HETATM    4  C   UNK N   1     167.504 154.987 152.539  0.00  0.00     0.243 C 
HETATM    5  O   UNK N   1     167.087 155.227 151.412  0.00  0.00    -0.268 OA
HETATM    6  C   UNK N   1     168.691 153.475 154.104  0.00  0.00     0.152 C 
HETATM    7  C   UNK N   1     169.331 152.087 154.214  0.00  0.00     0.188 C 
HETATM    8  O   UNK N   1     169.874 151.705 152.986  0.00  0.00    -0.378 OA
ENDROOT
BRANCH   4   9
HETATM    9  C   UNK N   1     167.291 156.038 153.579  0.00  0.00     0.075 C 
HETATM   10  C   UNK N   1     166.098 156.275 154.118  0.00  0.00     0.017 C 
BRANCH  10  11
HETATM   11  C   UNK N   1     165.777 157.320 155.086  0.00  0.00    -0.036 A 
HETATM   12  C   UNK N   1     164.478 157.544 155.563  0.00  0.00     0.014 A 
HETATM   13  C   UNK N   1     164.253 158.538 156.526  0.00  0.00     0.037 A 
HETATM   14  C   UNK N   1     165.322 159.304 157.011  0.00  0.00     0.069 A 
HETATM   15  C   UNK N   1     166.614 159.077 156.513  0.00  0.00     0.037 A 
HETATM   16  C   UNK N   1     166.837 158.090 155.562  0.00  0.00     0.014 A 
BRANCH  14  17
HETATM   17  O   UNK N   1     165.095 160.243 157.963  0.00  0.00    -0.342 OA
BRANCH  17  18
HETATM   18  C   UNK N   1     165.572 161.542 157.882  0.00  0.00     0.278 C 
BRANCH  18  19
HETATM   19  C   UNK N   1     164.882 162.344 156.811  0.00  0.00     0.239 C 
HETATM   20  N   UNK N   1     163.620 162.769 157.010  0.00  0.00    -0.368 N 
HETATM   21  H   UNK N   1     163.159 162.562 157.856  0.00  0.00     0.159 HD
HETATM   22  H   UNK N   1     163.159 163.287 156.312  0.00  0.00     0.159 HD
HETATM   23  O   UNK N   1     165.447 162.605 155.760  0.00  0.00    -0.271 OA
ENDBRANCH  18  19
ENDBRANCH  17  18
ENDBRANCH  14  17
ENDBRANCH  10  11
ENDBRANCH   4   9
BRANCH   1  24
HETATM   24  C   UNK N   1     169.008 150.419 151.158  0.00  0.00    -0.022 A 
HETATM   25  C   UNK N   1     169.326 150.798 149.845  0.00  0.00     0.010 A 
HETATM   26  C   UNK N   1     169.557 149.830 148.865  0.00  0.00     0.001 A 
HETATM   27  C   UNK N   1     169.472 148.475 149.188  0.00  0.00     0.001 A 
HETATM   28  C   UNK N   1     169.154 148.084 150.490  0.00  0.00     0.007 A 
HETATM   29  C   UNK N   1     168.920 149.046 151.478  0.00  0.00    -0.053 A 
HETATM   30  C   UNK N   1     168.570 148.585 152.854  0.00  0.00     0.049 C 
ENDBRANCH   1  24
TORSDOF 6
ENDMDL
MODEL 4
REMARK VINA RESULT:      -6.2      3.486     10.909
REMARK  6 active torsions:
REMARK  status: ('A' for Active; 'I' for Inactive)
REMARK    1  A    between atoms: C_8  and  C_7 
REMARK       I    between atoms: N_10  and  C_11 
REMARK    2  A    between atoms: C_11  and  C_13 
REMARK    3  A    between atoms: C_14  and  C_15 
REMARK    4  A    between atoms: C_18  and  O_19 
REMARK    5  A    between atoms: O_19  and  C_20 
REMARK    6  A    between atoms: C_20  and  C_21 
REMARK       I    between atoms: C_21  and  N_22 
ROOT
HETATM    1  C   UNK N   1     169.201 151.809 154.315  0.00  0.00     0.172 C 
HETATM    2  C   UNK N   1     167.837 152.018 154.974  0.00  0.00     0.163 C 
HETATM    3  N   UNK N   1     167.534 153.440 155.112  0.00  0.00    -0.344 N 
HETATM    4  C   UNK N   1     166.416 153.810 155.829  0.00  0.00     0.243 C 
HETATM    5  O   UNK N   1     165.696 152.941 156.305  0.00  0.00    -0.268 OA
HETATM    6  C   UNK N   1     168.385 154.446 154.465  0.00  0.00     0.152 C 
HETATM    7  C   UNK N   1     169.586 153.870 153.708  0.00  0.00     0.188 C 
HETATM    8  O   UNK N   1     169.269 152.617 153.179  0.00  0.00    -0.378 OA
ENDROOT
BRANCH   4   9
HETATM    9  C   UNK N   1     166.030 155.229 156.092  0.00  0.00     0.075 C 
HETATM   10  C   UNK N   1     166.239 155.819 157.267  0.00  0.00     0.017 C 
BRANCH  10  11
HETATM   11  C   UNK N   1     165.838 157.171 157.640  0.00  0.00    -0.036 A 
HETATM   12  C   UNK N   1     164.498 157.548 157.816  0.00  0.00     0.014 A 
HETATM   13  C   UNK N   1     164.192 158.855 158.219  0.00  0.00     0.037 A 
HETATM   14  C   UNK N   1     165.218 159.783 158.446  0.00  0.00     0.069 A 
HETATM   15  C   UNK N   1     166.552 159.393 158.253  0.00  0.00     0.037 A 
HETATM   16  C   UNK N   1     166.856 158.097 157.857  0.00  0.00     0.014 A 
BRANCH  14  17
HETATM   17  O   UNK N   1     164.909 161.036 158.863  0.00  0.00    -0.342 OA
BRANCH  17  18
HETATM   18  C   UNK N   1     165.306 162.182 158.192  0.00  0.00     0.278 C 
BRANCH  18  19
HETATM   19  C   UNK N   1     164.804 162.223 156.773  0.00  0.00     0.239 C 
HETATM   20  N   UNK N   1     163.488 162.388 156.540  0.00  0.00    -0.368 N 
HETATM   21  H   UNK N   1     162.864 162.490 157.296  0.00  0.00     0.159 HD
HETATM   22  H   UNK N   1     163.150 162.409 155.616  0.00  0.00     0.159 HD
HETATM   23  O   UNK N   1     165.572 162.098 155.832  0.00  0.00    -0.271 OA
ENDBRANCH  18  19
ENDBRANCH  17  18
ENDBRANCH  14  17
ENDBRANCH  10  11
ENDBRANCH   4   9
BRANCH   1  24
HETATM   24  C   UNK N   1     169.572 150.386 154.000  0.00  0.00    -0.022 A 
HETATM   25  C   UNK N   1     169.079 149.764 152.842  0.00  0.00     0.010 A 
HETATM   26  C   UNK N   1     169.408 148.438 152.555  0.00  0.00     0.001 A 
HETATM   27  C   UNK N   1     170.231 147.719 153.423  0.00  0.00     0.001 A 
HETATM   28  C   UNK N   1     170.726 148.324 154.580  0.00  0.00     0.007 A 
HETATM   29  C   UNK N   1     170.402 149.652 154.876  0.00  0.00    -0.053 A 
HETATM   30  C   UNK N   1     170.942 150.256 156.130  0.00  0.00     0.049 C 
ENDBRANCH   1  24
TORSDOF 6
ENDMDL
MODEL 5
REMARK VINA RESULT:      -6.1      2.332      3.379
REMARK  6 active torsions:
REMARK  status: ('A' for Active; 'I' for Inactive)
REMARK    1  A    between atoms: C_8  and  C_7 
REMARK       I    between atoms: N_10  and  C_11 
REMARK    2  A    between atoms: C_11  and  C_13 
REMARK    3  A    between atoms: C_14  and  C_15 
REMARK    4  A    between atoms: C_18  and  O_19 
REMARK    5  A    between atoms: O_19  and  C_20 
REMARK    6  A    between atoms: C_20  and  C_21 
REMARK       I    between atoms: C_21  and  N_22 
ROOT
HETATM    1  C   UNK N   1     165.494 158.666 156.194  0.00  0.00     0.172 C 
HETATM    2  C   UNK N   1     166.682 157.861 156.721  0.00  0.00     0.163 C 
HETATM    3  N   UNK N   1     167.066 156.815 155.778  0.00  0.00    -0.344 N 
HETATM    4  C   UNK N   1     168.016 155.893 156.163  0.00  0.00     0.243 C 
HETATM    5  O   UNK N   1     168.531 155.993 157.271  0.00  0.00    -0.268 OA
HETATM    6  C   UNK N   1     166.475 156.774 154.434  0.00  0.00     0.152 C 
HETATM    7  C   UNK N   1     165.437 157.867 154.164  0.00  0.00     0.188 C 
HETATM    8  O   UNK N   1     165.758 159.026 154.872  0.00  0.00    -0.378 OA
ENDROOT
BRANCH   4   9
HETATM    9  C   UNK N   1     168.452 154.743 155.315  0.00  0.00     0.075 C 
HETATM   10  C   UNK N   1     167.953 153.518 155.465  0.00  0.00     0.017 C 
BRANCH  10  11
HETATM   11  C   UNK N   1     168.360 152.322 154.735  0.00  0.00    -0.036 A 
HETATM   12  C   UNK N   1     168.089 151.023 155.188  0.00  0.00     0.014 A 
HETATM   13  C   UNK N   1     168.473 149.922 154.410  0.00  0.00     0.037 A 
HETATM   14  C   UNK N   1     169.125 150.117 153.185  0.00  0.00     0.069 A 
HETATM   15  C   UNK N   1     169.401 151.422 152.752  0.00  0.00     0.037 A 
HETATM   16  C   UNK N   1     169.018 152.514 153.521  0.00  0.00     0.014 A 
BRANCH  14  17
HETATM   17  O   UNK N   1     169.465 149.043 152.429  0.00  0.00    -0.342 OA
BRANCH  17  18
HETATM   18  C   UNK N   1     168.550 148.314 151.685  0.00  0.00     0.278 C 
BRANCH  18  19
HETATM   19  C   UNK N   1     168.561 148.690 150.227  0.00  0.00     0.239 C 
HETATM   20  N   UNK N   1     169.283 147.956 149.359  0.00  0.00    -0.368 N 
HETATM   21  H   UNK N   1     169.791 147.174 149.679  0.00  0.00     0.159 HD
HETATM   22  H   UNK N   1     169.303 148.199 148.405  0.00  0.00     0.159 HD
HETATM   23  O   UNK N   1     167.934 149.657 149.823  0.00  0.00    -0.271 OA
ENDBRANCH  18  19
ENDBRANCH  17  18
ENDBRANCH  14  17
ENDBRANCH  10  11
ENDBRANCH   4   9
BRANCH   1  24
HETATM   24  C   UNK N   1     165.085 159.857 157.017  0.00  0.00    -0.022 A 
HETATM   25  C   UNK N   1     166.030 160.833 157.370  0.00  0.00     0.010 A 
HETATM   26  C   UNK N   1     165.657 161.931 158.148  0.00  0.00     0.001 A 
HETATM   27  C   UNK N   1     164.337 162.063 158.582  0.00  0.00     0.001 A 
HETATM   28  C   UNK N   1     163.388 161.098 158.240  0.00  0.00     0.007 A 
HETATM   29  C   UNK N   1     163.751 159.995 157.462  0.00  0.00    -0.053 A 
HETATM   30  C   UNK N   1     162.708 158.980 157.131  0.00  0.00     0.049 C 
ENDBRANCH   1  24
TORSDOF 6
ENDMDL
MODEL 6
REMARK VINA RESULT:      -6.0      3.841      4.570
REMARK  6 active torsions:
REMARK  status: ('A' for Active; 'I' for Inactive)
REMARK    1  A    between atoms: C_8  and  C_7 
REMARK       I    between atoms: N_10  and  C_11 
REMARK    2  A    between atoms: C_11  and  C_13 
REMARK    3  A    between atoms: C_14  and  C_15 
REMARK    4  A    between atoms: C_18  and  O_19 
REMARK    5  A    between atoms: O_19  and  C_20 
REMARK    6  A    between atoms: C_20  and  C_21 
REMARK       I    between atoms: C_21  and  N_22 
ROOT
HETATM    1  C   UNK N   1     160.918 158.234 157.122  0.00  0.00     0.172 C 
HETATM    2  C   UNK N   1     161.959 158.334 156.008  0.00  0.00     0.163 C 
HETATM    3  N   UNK N   1     162.652 157.063 155.823  0.00  0.00    -0.344 N 
HETATM    4  C   UNK N   1     163.734 157.018 154.968  0.00  0.00     0.243 C 
HETATM    5  O   UNK N   1     164.065 158.034 154.369  0.00  0.00    -0.268 OA
HETATM    6  C   UNK N   1     162.179 155.852 156.507  0.00  0.00     0.152 C 
HETATM    7  C   UNK N   1     160.968 156.073 157.420  0.00  0.00     0.188 C 
HETATM    8  O   UNK N   1     160.154 157.086 156.909  0.00  0.00    -0.378 OA
ENDROOT
BRANCH   4   9
HETATM    9  C   UNK N   1     164.561 155.795 154.738  0.00  0.00     0.075 C 
HETATM   10  C   UNK N   1     165.891 155.834 154.688  0.00  0.00     0.017 C 
BRANCH  10  11
HETATM   11  C   UNK N   1     166.779 154.712 154.402  0.00  0.00    -0.036 A 
HETATM   12  C   UNK N   1     167.032 153.686 155.324  0.00  0.00     0.014 A 
HETATM   13  C   UNK N   1     167.863 152.617 154.962  0.00  0.00     0.037 A 
HETATM   14  C   UNK N   1     168.438 152.571 153.685  0.00  0.00     0.069 A 
HETATM   15  C   UNK N   1     168.186 153.612 152.779  0.00  0.00     0.037 A 
HETATM   16  C   UNK N   1     167.360 154.670 153.136  0.00  0.00     0.014 A 
BRANCH  14  17
HETATM   17  O   UNK N   1     169.217 151.516 153.338  0.00  0.00    -0.342 OA
BRANCH  17  18
HETATM   18  C   UNK N   1     169.445 150.431 154.171  0.00  0.00     0.278 C 
BRANCH  18  19
HETATM   19  C   UNK N   1     168.640 149.221 153.776  0.00  0.00     0.239 C 
HETATM   20  N   UNK N   1     167.380 149.086 154.230  0.00  0.00    -0.368 N 
HETATM   21  H   UNK N   1     166.988 149.781 154.809  0.00  0.00     0.159 HD
HETATM   22  H   UNK N   1     166.850 148.295 153.983  0.00  0.00     0.159 HD
HETATM   23  O   UNK N   1     169.119 148.356 153.059  0.00  0.00    -0.271 OA
ENDBRANCH  18  19
ENDBRANCH  17  18
ENDBRANCH  14  17
ENDBRANCH  10  11
ENDBRANCH   4   9
BRANCH   1  24
HETATM   24  C   UNK N   1     160.046 159.443 157.324  0.00  0.00    -0.022 A 
HETATM   25  C   UNK N   1     158.897 159.628 156.538  0.00  0.00     0.010 A 
HETATM   26  C   UNK N   1     158.095 160.758 156.710  0.00  0.00     0.001 A 
HETATM   27  C   UNK N   1     158.434 161.715 157.668  0.00  0.00     0.001 A 
HETATM   28  C   UNK N   1     159.575 161.545 158.455  0.00  0.00     0.007 A 
HETATM   29  C   UNK N   1     160.384 160.417 158.289  0.00  0.00    -0.053 A 
HETATM   30  C   UNK N   1     161.603 160.282 159.142  0.00  0.00     0.049 C 
ENDBRANCH   1  24
TORSDOF 6
ENDMDL
MODEL 7
REMARK VINA RESULT:      -5.9      5.771      7.648
REMARK  6 active torsions:
REMARK  status: ('A' for Active; 'I' for Inactive)
REMARK    1  A    between atoms: C_8  and  C_7 
REMARK       I    between atoms: N_10  and  C_11 
REMARK    2  A    between atoms: C_11  and  C_13 
REMARK    3  A    between atoms: C_14  and  C_15 
REMARK    4  A    between atoms: C_18  and  O_19 
REMARK    5  A    between atoms: O_19  and  C_20 
REMARK    6  A    between atoms: C_20  and  C_21 
REMARK       I    between atoms: C_21  and  N_22 
ROOT
HETATM    1  C   UNK N   1     159.358 156.319 161.278  0.00  0.00     0.172 C 
HETATM    2  C   UNK N   1     159.173 156.549 159.778  0.00  0.00     0.163 C 
HETATM    3  N   UNK N   1     160.319 156.048 159.025  0.00  0.00    -0.344 N 
HETATM    4  C   UNK N   1     160.391 156.316 157.675  0.00  0.00     0.243 C 
HETATM    5  O   UNK N   1     159.482 156.941 157.140  0.00  0.00    -0.268 OA
HETATM    6  C   UNK N   1     161.351 155.243 159.692  0.00  0.00     0.152 C 
HETATM    7  C   UNK N   1     161.123 155.038 161.193  0.00  0.00     0.188 C 
HETATM    8  O   UNK N   1     159.756 154.996 161.474  0.00  0.00    -0.378 OA
ENDROOT
BRANCH   4   9
HETATM    9  C   UNK N   1     161.537 155.911 156.806  0.00  0.00     0.075 C 
HETATM   10  C   UNK N   1     162.466 156.776 156.404  0.00  0.00     0.017 C 
BRANCH  10  11
HETATM   11  C   UNK N   1     163.580 156.492 155.504  0.00  0.00    -0.036 A 
HETATM   12  C   UNK N   1     163.962 157.357 154.468  0.00  0.00     0.014 A 
HETATM   13  C   UNK N   1     165.071 157.039 153.672  0.00  0.00     0.037 A 
HETATM   14  C   UNK N   1     165.797 155.864 153.910  0.00  0.00     0.069 A 
HETATM   15  C   UNK N   1     165.394 155.003 154.943  0.00  0.00     0.037 A 
HETATM   16  C   UNK N   1     164.297 155.319 155.733  0.00  0.00     0.014 A 
BRANCH  14  17
HETATM   17  O   UNK N   1     166.886 155.583 153.151  0.00  0.00    -0.342 OA
BRANCH  17  18
HETATM   18  C   UNK N   1     167.926 154.774 153.581  0.00  0.00     0.278 C 
BRANCH  18  19
HETATM   19  C   UNK N   1     169.103 155.567 154.085  0.00  0.00     0.239 C 
HETATM   20  N   UNK N   1     169.471 155.458 155.376  0.00  0.00    -0.368 N 
HETATM   21  H   UNK N   1     168.977 154.857 155.979  0.00  0.00     0.159 HD
HETATM   22  H   UNK N   1     170.234 155.979 155.716  0.00  0.00     0.159 HD
HETATM   23  O   UNK N   1     169.720 156.315 153.343  0.00  0.00    -0.271 OA
ENDBRANCH  18  19
ENDBRANCH  17  18
ENDBRANCH  14  17
ENDBRANCH  10  11
ENDBRANCH   4   9
BRANCH   1  24
HETATM   24  C   UNK N   1     158.187 156.676 162.152  0.00  0.00    -0.022 A 
HETATM   25  C   UNK N   1     156.875 156.505 161.683  0.00  0.00     0.010 A 
HETATM   26  C   UNK N   1     155.785 156.851 162.485  0.00  0.00     0.001 A 
HETATM   27  C   UNK N   1     155.996 157.372 163.763  0.00  0.00     0.001 A 
HETATM   28  C   UNK N   1     157.296 157.550 164.240  0.00  0.00     0.007 A 
HETATM   29  C   UNK N   1     158.393 157.206 163.445  0.00  0.00    -0.053 A 
HETATM   30  C   UNK N   1     159.767 157.424 163.989  0.00  0.00     0.049 C 
ENDBRANCH   1  24
TORSDOF 6
ENDMDL
MODEL 8
REMARK VINA RESULT:      -5.9     13.553     17.162
REMARK  6 active torsions:
REMARK  status: ('A' for Active; 'I' for Inactive)
REMARK    1  A    between atoms: C_8  and  C_7 
REMARK       I    between atoms: N_10  and  C_11 
REMARK    2  A    between atoms: C_11  and  C_13 
REMARK    3  A    between atoms: C_14  and  C_15 
REMARK    4  A    between atoms: C_18  and  O_19 
REMARK    5  A    between atoms: O_19  and  C_20 
REMARK    6  A    between atoms: C_20  and  C_21 
REMARK       I    between atoms: C_21  and  N_22 
ROOT
HETATM    1  C   UNK N   1     156.240 144.701 151.509  0.00  0.00     0.172 C 
HETATM    2  C   UNK N   1     156.067 145.861 152.490  0.00  0.00     0.163 C 
HETATM    3  N   UNK N   1     156.962 145.716 153.635  0.00  0.00    -0.344 N 
HETATM    4  C   UNK N   1     156.825 146.588 154.694  0.00  0.00     0.243 C 
HETATM    5  O   UNK N   1     155.980 147.474 154.635  0.00  0.00    -0.268 OA
HETATM    6  C   UNK N   1     158.008 144.685 153.634  0.00  0.00     0.152 C 
HETATM    7  C   UNK N   1     158.024 143.800 152.384  0.00  0.00     0.188 C 
HETATM    8  O   UNK N   1     157.604 144.528 151.269  0.00  0.00    -0.378 OA
ENDROOT
BRANCH   4   9
HETATM    9  C   UNK N   1     157.638 146.510 155.946  0.00  0.00     0.075 C 
HETATM   10  C   UNK N   1     157.196 145.903 157.045  0.00  0.00     0.017 C 
BRANCH  10  11
HETATM   11  C   UNK N   1     157.883 145.832 158.330  0.00  0.00    -0.036 A 
HETATM   12  C   UNK N   1     158.894 144.900 158.603  0.00  0.00     0.014 A 
HETATM   13  C   UNK N   1     159.540 144.921 159.847  0.00  0.00     0.037 A 
HETATM   14  C   UNK N   1     159.180 145.869 160.814  0.00  0.00     0.069 A 
HETATM   15  C   UNK N   1     158.157 146.787 160.529  0.00  0.00     0.037 A 
HETATM   16  C   UNK N   1     157.519 146.768 159.296  0.00  0.00     0.014 A 
BRANCH  14  17
HETATM   17  O   UNK N   1     159.834 145.897 162.002  0.00  0.00    -0.342 OA
BRANCH  17  18
HETATM   18  C   UNK N   1     160.479 147.022 162.490  0.00  0.00     0.278 C 
BRANCH  18  19
HETATM   19  C   UNK N   1     161.978 146.881 162.470  0.00  0.00     0.239 C 
HETATM   20  N   UNK N   1     162.670 147.318 161.400  0.00  0.00    -0.368 N 
HETATM   21  H   UNK N   1     162.196 147.733 160.644  0.00  0.00     0.159 HD
HETATM   22  H   UNK N   1     163.650 147.223 161.375  0.00  0.00     0.159 HD
HETATM   23  O   UNK N   1     162.573 146.368 163.404  0.00  0.00    -0.271 OA
ENDBRANCH  18  19
ENDBRANCH  17  18
ENDBRANCH  14  17
ENDBRANCH  10  11
ENDBRANCH   4   9
BRANCH   1  24
HETATM   24  C   UNK N   1     155.465 144.801 150.223  0.00  0.00    -0.022 A 
HETATM   25  C   UNK N   1     155.378 146.025 149.541  0.00  0.00     0.010 A 
HETATM   26  C   UNK N   1     154.645 146.126 148.357  0.00  0.00     0.001 A 
HETATM   27  C   UNK N   1     153.991 145.005 147.844  0.00  0.00     0.001 A 
HETATM   28  C   UNK N   1     154.067 143.782 148.513  0.00  0.00     0.007 A 
HETATM   29  C   UNK N   1     154.798 143.672 149.700  0.00  0.00    -0.053 A 
HETATM   30  C   UNK N   1     154.842 142.349 150.391  0.00  0.00     0.049 C 
ENDBRANCH   1  24
TORSDOF 6
ENDMDL
MODEL 9
REMARK VINA RESULT:      -5.8     13.101     14.406
REMARK  6 active torsions:
REMARK  status: ('A' for Active; 'I' for Inactive)
REMARK    1  A    between atoms: C_8  and  C_7 
REMARK       I    between atoms: N_10  and  C_11 
REMARK    2  A    between atoms: C_11  and  C_13 
REMARK    3  A    between atoms: C_14  and  C_15 
REMARK    4  A    between atoms: C_18  and  O_19 
REMARK    5  A    between atoms: O_19  and  C_20 
REMARK    6  A    between atoms: C_20  and  C_21 
REMARK       I    between atoms: C_21  and  N_22 
ROOT
HETATM    1  C   UNK N   1     159.476 145.751 159.877  0.00  0.00     0.172 C 
HETATM    2  C   UNK N   1     158.661 146.844 159.186  0.00  0.00     0.163 C 
HETATM    3  N   UNK N   1     158.370 146.485 157.801  0.00  0.00    -0.344 N 
HETATM    4  C   UNK N   1     157.781 147.427 156.984  0.00  0.00     0.243 C 
HETATM    5  O   UNK N   1     157.493 148.525 157.447  0.00  0.00    -0.268 OA
HETATM    6  C   UNK N   1     158.666 145.135 157.306  0.00  0.00     0.152 C 
HETATM    7  C   UNK N   1     159.320 144.211 158.339  0.00  0.00     0.188 C 
HETATM    8  O   UNK N   1     158.867 144.521 159.622  0.00  0.00    -0.378 OA
ENDROOT
BRANCH   4   9
HETATM    9  C   UNK N   1     157.486 147.204 155.537  0.00  0.00     0.075 C 
HETATM   10  C   UNK N   1     156.396 146.561 155.123  0.00  0.00     0.017 C 
BRANCH  10  11
HETATM   11  C   UNK N   1     156.056 146.237 153.741  0.00  0.00    -0.036 A 
HETATM   12  C   UNK N   1     156.731 145.256 153.000  0.00  0.00     0.014 A 
HETATM   13  C   UNK N   1     156.318 144.968 151.692  0.00  0.00     0.037 A 
HETATM   14  C   UNK N   1     155.236 145.655 151.126  0.00  0.00     0.069 A 
HETATM   15  C   UNK N   1     154.579 146.642 151.876  0.00  0.00     0.037 A 
HETATM   16  C   UNK N   1     154.986 146.926 153.173  0.00  0.00     0.014 A 
BRANCH  14  17
HETATM   17  O   UNK N   1     154.829 145.346 149.869  0.00  0.00    -0.342 OA
BRANCH  17  18
HETATM   18  C   UNK N   1     154.648 146.292 148.873  0.00  0.00     0.278 C 
BRANCH  18  19
HETATM   19  C   UNK N   1     155.942 146.698 148.221  0.00  0.00     0.239 C 
HETATM   20  N   UNK N   1     156.155 147.993 147.919  0.00  0.00    -0.368 N 
HETATM   21  H   UNK N   1     155.470 148.667 148.134  0.00  0.00     0.159 HD
HETATM   22  H   UNK N   1     156.996 148.266 147.486  0.00  0.00     0.159 HD
HETATM   23  O   UNK N   1     156.797 145.868 147.952  0.00  0.00    -0.271 OA
ENDBRANCH  18  19
ENDBRANCH  17  18
ENDBRANCH  14  17
ENDBRANCH  10  11
ENDBRANCH   4   9
BRANCH   1  24
HETATM   24  C   UNK N   1     159.730 145.944 161.347  0.00  0.00    -0.022 A 
HETATM   25  C   UNK N   1     158.961 145.253 162.296  0.00  0.00     0.010 A 
HETATM   26  C   UNK N   1     159.183 145.443 163.662  0.00  0.00     0.001 A 
HETATM   27  C   UNK N   1     160.175 146.326 164.092  0.00  0.00     0.001 A 
HETATM   28  C   UNK N   1     160.946 147.021 163.158  0.00  0.00     0.007 A 
HETATM   29  C   UNK N   1     160.731 146.838 161.789  0.00  0.00    -0.053 A 
HETATM   30  C   UNK N   1     161.569 147.611 160.824  0.00  0.00     0.049 C 
ENDBRANCH   1  24
TORSDOF 6
ENDMDL
