MODEL 1
REMARK VINA RESULT:      -6.6      0.000      0.000
REMARK  5 active torsions:
REMARK  status: ('A' for Active; 'I' for Inactive)
REMARK    1  A    between atoms: O_2  and  C_3 
REMARK    2  A    between atoms: C_5  and  C_3 
REMARK    3  A    between atoms: C_7  and  C_8 
REMARK       I    between atoms: N_15  and  C_16 
REMARK    4  A    between atoms: C_16  and  C_18 
REMARK    5  A    between atoms: C_18  and  N_19 
ROOT
HETATM    1  C   UNK N   1     165.646 155.416 154.862  0.00  0.00     0.104 C 
HETATM    2  C   UNK N   1     165.685 156.848 155.398  0.00  0.00     0.027 C 
HETATM    3  C   UNK N   1     166.593 156.934 156.626  0.00  0.00     0.037 C 
HETATM    4  C   UNK N   1     165.908 156.150 157.747  0.00  0.00     0.135 C 
HETATM    5  N   UNK N   1     165.411 154.869 157.259  0.00  0.00    -0.349 N 
HETATM    6  C   UNK N   1     164.500 154.165 157.987  0.00  0.00     0.239 C 
HETATM    7  O   UNK N   1     164.068 153.100 157.564  0.00  0.00    -0.271 OA
HETATM    8  C   UNK N   1     165.867 154.368 155.969  0.00  0.00     0.140 C 
ENDROOT
BRANCH   6   9
HETATM    9  C   UNK N   1     164.004 154.698 159.310  0.00  0.00     0.257 C 
BRANCH   9  10
HETATM   10  N   UNK N   1     162.668 155.260 159.187  0.00  0.00    -0.232 N 
HETATM   11  N   UNK N   1     162.047 155.480 158.034  0.00  0.00    -0.278 N 
HETATM   12  C   UNK N   1     160.826 155.970 158.352  0.00  0.00     0.130 A 
ATOM     13  HN  UNK N   1     162.415 155.313 157.098  1.00  0.00     0.189 HD
HETATM   14  C   UNK N   1     159.817 156.338 157.471  0.00  0.00     0.050 A 
HETATM   15  N   UNK N   1     160.664 156.065 159.683  0.00  0.00    -0.258 N 
HETATM   16  C   UNK N   1     158.617 156.813 158.032  0.00  0.00     0.005 A 
HETATM   17  C   UNK N   1     158.470 156.905 159.433  0.00  0.00     0.018 A 
HETATM   18  C   UNK N   1     159.529 156.518 160.269  0.00  0.00     0.103 A 
HETATM   19  C   UNK N   1     161.829 155.618 160.193  0.00  0.00     0.349 A 
HETATM   20  O   UNK N   1     162.087 155.536 161.382  0.00  0.00    -0.244 OA
ENDBRANCH   9  10
ENDBRANCH   6   9
BRANCH   3  21
HETATM   21  C   UNK N   1     166.922 158.346 157.024  0.00  0.00    -0.052 A 
HETATM   22  C   UNK N   1     167.826 158.616 158.065  0.00  0.00     0.007 A 
HETATM   23  C   UNK N   1     168.092 159.931 158.449  0.00  0.00     0.001 A 
HETATM   24  C   UNK N   1     167.459 160.989 157.793  0.00  0.00     0.000 A 
HETATM   25  C   UNK N   1     166.556 160.731 156.757  0.00  0.00     0.001 A 
HETATM   26  C   UNK N   1     166.282 159.413 156.379  0.00  0.00     0.007 A 
ENDBRANCH   3  21
BRANCH   1  27
HETATM   27  C   UNK N   1     166.706 155.293 153.817  0.00  0.00     0.264 C 
HETATM   28  O   UNK N   1     166.537 155.812 152.723  0.00  0.00    -0.265 OA
BRANCH  27  29
HETATM   29  O   UNK N   1     167.869 154.659 154.115  0.00  0.00    -0.326 OA
HETATM   30  C   UNK N   1     169.076 155.314 154.167  0.00  0.00     0.213 C 
ENDBRANCH  27  29
ENDBRANCH   1  27
TORSDOF 5
ENDMDL
MODEL 2
REMARK VINA RESULT:      -6.5      5.040      8.171
REMARK  5 active torsions:
REMARK  status: ('A' for Active; 'I' for Inactive)
REMARK    1  A    between atoms: O_2  and  C_3 
REMARK    2  A    between atoms: C_5  and  C_3 
REMARK    3  A    between atoms: C_7  and  C_8 
REMARK       I    between atoms: N_15  and  C_16 
REMARK    4  A    between atoms: C_16  and  C_18 
REMARK    5  A    between atoms: C_18  and  N_19 
ROOT
HETATM    1  C   UNK N   1     168.693 149.504 155.530  0.00  0.00     0.104 C 
HETATM    2  C   UNK N   1     168.299 149.343 154.060  0.00  0.00     0.027 C 
HETATM    3  C   UNK N   1     169.220 150.176 153.166  0.00  0.00     0.037 C 
HETATM    4  C   UNK N   1     168.919 151.647 153.459  0.00  0.00     0.135 C 
HETATM    5  N   UNK N   1     168.837 151.886 154.895  0.00  0.00    -0.349 N 
HETATM    6  C   UNK N   1     168.268 153.030 155.367  0.00  0.00     0.239 C 
HETATM    7  O   UNK N   1     168.180 153.218 156.574  0.00  0.00    -0.271 OA
HETATM    8  C   UNK N   1     169.332 150.875 155.820  0.00  0.00     0.140 C 
ENDROOT
BRANCH   6   9
HETATM    9  C   UNK N   1     167.727 154.065 154.410  0.00  0.00     0.257 C 
BRANCH   9  10
HETATM   10  N   UNK N   1     166.446 154.586 154.861  0.00  0.00    -0.232 N 
HETATM   11  N   UNK N   1     165.619 153.945 155.680  0.00  0.00    -0.278 N 
HETATM   12  C   UNK N   1     164.569 154.775 155.878  0.00  0.00     0.130 A 
ATOM     13  HN  UNK N   1     165.750 153.016 156.078  1.00  0.00     0.189 HD
HETATM   14  C   UNK N   1     163.455 154.539 156.674  0.00  0.00     0.050 A 
HETATM   15  N   UNK N   1     164.715 155.927 155.201  0.00  0.00    -0.258 N 
HETATM   16  C   UNK N   1     162.487 155.558 156.741  0.00  0.00     0.005 A 
HETATM   17  C   UNK N   1     162.661 156.760 156.021  0.00  0.00     0.018 A 
HETATM   18  C   UNK N   1     163.810 156.936 155.233  0.00  0.00     0.103 A 
HETATM   19  C   UNK N   1     165.897 155.792 154.566  0.00  0.00     0.349 A 
HETATM   20  O   UNK N   1     166.403 156.633 153.843  0.00  0.00    -0.244 OA
ENDBRANCH   9  10
ENDBRANCH   6   9
BRANCH   3  21
HETATM   21  C   UNK N   1     169.093 149.838 151.706  0.00  0.00    -0.052 A 
HETATM   22  C   UNK N   1     169.102 148.504 151.267  0.00  0.00     0.007 A 
HETATM   23  C   UNK N   1     169.023 148.206 149.906  0.00  0.00     0.001 A 
HETATM   24  C   UNK N   1     168.930 149.241 148.971  0.00  0.00     0.000 A 
HETATM   25  C   UNK N   1     168.922 150.572 149.399  0.00  0.00     0.001 A 
HETATM   26  C   UNK N   1     169.012 150.870 150.762  0.00  0.00     0.007 A 
ENDBRANCH   3  21
BRANCH   1  27
HETATM   27  C   UNK N   1     169.651 148.408 155.865  0.00  0.00     0.264 C 
HETATM   28  O   UNK N   1     170.850 148.643 155.893  0.00  0.00    -0.265 OA
BRANCH  27  29
HETATM   29  O   UNK N   1     169.174 147.179 156.193  0.00  0.00    -0.326 OA
HETATM   30  C   UNK N   1     168.002 147.003 156.887  0.00  0.00     0.213 C 
ENDBRANCH  27  29
ENDBRANCH   1  27
TORSDOF 5
ENDMDL
MODEL 3
REMARK VINA RESULT:      -6.3      4.122      7.443
REMARK  5 active torsions:
REMARK  status: ('A' for Active; 'I' for Inactive)
REMARK    1  A    between atoms: O_2  and  C_3 
REMARK    2  A    between atoms: C_5  and  C_3 
REMARK    3  A    between atoms: C_7  and  C_8 
REMARK       I    between atoms: N_15  and  C_16 
REMARK    4  A    between atoms: C_16  and  C_18 
REMARK    5  A    between atoms: C_18  and  N_19 
ROOT
HETATM    1  C   UNK N   1     165.300 156.473 154.387  0.00  0.00     0.104 C 
HETATM    2  C   UNK N   1     165.696 156.283 155.853  0.00  0.00     0.027 C 
HETATM    3  C   UNK N   1     167.046 156.948 156.132  0.00  0.00     0.037 C 
HETATM    4  C   UNK N   1     168.105 156.151 155.367  0.00  0.00     0.135 C 
HETATM    5  N   UNK N   1     167.664 155.871 154.005  0.00  0.00    -0.349 N 
HETATM    6  C   UNK N   1     168.292 154.916 153.266  0.00  0.00     0.239 C 
HETATM    7  O   UNK N   1     167.906 154.667 152.131  0.00  0.00    -0.271 OA
HETATM    8  C   UNK N   1     166.523 156.593 153.459  0.00  0.00     0.140 C 
ENDROOT
BRANCH   6   9
HETATM    9  C   UNK N   1     169.457 154.146 153.843  0.00  0.00     0.257 C 
BRANCH   9  10
HETATM   10  N   UNK N   1     169.165 152.723 153.920  0.00  0.00    -0.232 N 
HETATM   11  N   UNK N   1     169.490 151.836 152.987  0.00  0.00    -0.278 N 
HETATM   12  C   UNK N   1     169.077 150.634 153.452  0.00  0.00     0.130 A 
ATOM     13  HN  UNK N   1     169.956 152.022 152.100  1.00  0.00     0.189 HD
HETATM   14  C   UNK N   1     169.212 149.402 152.823  0.00  0.00     0.050 A 
HETATM   15  N   UNK N   1     168.497 150.744 154.659  0.00  0.00    -0.258 N 
HETATM   16  C   UNK N   1     168.716 148.276 153.504  0.00  0.00     0.005 A 
HETATM   17  C   UNK N   1     168.110 148.416 154.772  0.00  0.00     0.018 A 
HETATM   18  C   UNK N   1     168.004 149.689 155.353  0.00  0.00     0.103 A 
HETATM   19  C   UNK N   1     168.558 152.061 154.938  0.00  0.00     0.349 A 
HETATM   20  O   UNK N   1     168.140 152.580 155.959  0.00  0.00    -0.244 OA
ENDBRANCH   9  10
ENDBRANCH   6   9
BRANCH   3  21
HETATM   21  C   UNK N   1     167.357 157.067 157.598  0.00  0.00    -0.052 A 
HETATM   22  C   UNK N   1     168.683 157.069 158.061  0.00  0.00     0.007 A 
HETATM   23  C   UNK N   1     168.956 157.141 159.427  0.00  0.00     0.001 A 
HETATM   24  C   UNK N   1     167.905 157.216 160.344  0.00  0.00     0.000 A 
HETATM   25  C   UNK N   1     166.581 157.212 159.894  0.00  0.00     0.001 A 
HETATM   26  C   UNK N   1     166.308 157.130 158.525  0.00  0.00     0.007 A 
ENDBRANCH   3  21
BRANCH   1  27
HETATM   27  C   UNK N   1     164.464 157.708 154.301  0.00  0.00     0.264 C 
HETATM   28  O   UNK N   1     164.280 158.236 153.214  0.00  0.00    -0.265 OA
BRANCH  27  29
HETATM   29  O   UNK N   1     163.871 158.195 155.421  0.00  0.00    -0.326 OA
HETATM   30  C   UNK N   1     162.550 157.961 155.719  0.00  0.00     0.213 C 
ENDBRANCH  27  29
ENDBRANCH   1  27
TORSDOF 5
ENDMDL
MODEL 4
REMARK VINA RESULT:      -6.2      3.499      7.234
REMARK  5 active torsions:
REMARK  status: ('A' for Active; 'I' for Inactive)
REMARK    1  A    between atoms: O_2  and  C_3 
REMARK    2  A    between atoms: C_5  and  C_3 
REMARK    3  A    between atoms: C_7  and  C_8 
REMARK       I    between atoms: N_15  and  C_16 
REMARK    4  A    between atoms: C_16  and  C_18 
REMARK    5  A    between atoms: C_18  and  N_19 
ROOT
HETATM    1  C   UNK N   1     166.482 160.399 156.717  0.00  0.00     0.104 C 
HETATM    2  C   UNK N   1     165.564 159.253 156.287  0.00  0.00     0.027 C 
HETATM    3  C   UNK N   1     164.967 158.559 157.513  0.00  0.00     0.037 C 
HETATM    4  C   UNK N   1     166.116 157.848 158.230  0.00  0.00     0.135 C 
HETATM    5  N   UNK N   1     167.279 158.720 158.345  0.00  0.00    -0.349 N 
HETATM    6  C   UNK N   1     168.499 158.199 158.649  0.00  0.00     0.239 C 
HETATM    7  O   UNK N   1     169.478 158.931 158.722  0.00  0.00    -0.271 OA
HETATM    8  C   UNK N   1     167.131 160.147 158.091  0.00  0.00     0.140 C 
ENDROOT
BRANCH   6   9
HETATM    9  C   UNK N   1     168.659 156.715 158.882  0.00  0.00     0.257 C 
BRANCH   9  10
HETATM   10  N   UNK N   1     168.641 155.977 157.628  0.00  0.00    -0.232 N 
HETATM   11  N   UNK N   1     169.038 156.468 156.460  0.00  0.00    -0.278 N 
HETATM   12  C   UNK N   1     168.897 155.464 155.563  0.00  0.00     0.130 A 
ATOM     13  HN  UNK N   1     169.381 157.410 156.276  1.00  0.00     0.189 HD
HETATM   14  C   UNK N   1     169.199 155.505 154.208  0.00  0.00     0.050 A 
HETATM   15  N   UNK N   1     168.418 154.350 156.141  0.00  0.00    -0.258 N 
HETATM   16  C   UNK N   1     168.982 154.330 153.466  0.00  0.00     0.005 A 
HETATM   17  C   UNK N   1     168.477 153.170 154.095  0.00  0.00     0.018 A 
HETATM   18  C   UNK N   1     168.191 153.195 155.468  0.00  0.00     0.103 A 
HETATM   19  C   UNK N   1     168.260 154.688 157.437  0.00  0.00     0.349 A 
HETATM   20  O   UNK N   1     167.848 153.943 158.309  0.00  0.00    -0.244 OA
ENDBRANCH   9  10
ENDBRANCH   6   9
BRANCH   3  21
HETATM   21  C   UNK N   1     163.832 157.631 157.176  0.00  0.00    -0.052 A 
HETATM   22  C   UNK N   1     162.661 157.605 157.951  0.00  0.00     0.007 A 
HETATM   23  C   UNK N   1     161.632 156.712 157.649  0.00  0.00     0.001 A 
HETATM   24  C   UNK N   1     161.763 155.839 156.567  0.00  0.00     0.000 A 
HETATM   25  C   UNK N   1     162.926 155.856 155.790  0.00  0.00     0.001 A 
HETATM   26  C   UNK N   1     163.961 156.743 156.099  0.00  0.00     0.007 A 
ENDBRANCH   3  21
BRANCH   1  27
HETATM   27  C   UNK N   1     165.662 161.647 156.754  0.00  0.00     0.264 C 
HETATM   28  O   UNK N   1     165.451 162.260 155.719  0.00  0.00    -0.265 OA
BRANCH  27  29
HETATM   29  O   UNK N   1     165.113 162.051 157.928  0.00  0.00    -0.326 OA
HETATM   30  C   UNK N   1     163.754 162.131 158.120  0.00  0.00     0.213 C 
ENDBRANCH  27  29
ENDBRANCH   1  27
TORSDOF 5
ENDMDL
MODEL 5
REMARK VINA RESULT:      -6.2     11.442     13.211
REMARK  5 active torsions:
REMARK  status: ('A' for Active; 'I' for Inactive)
REMARK    1  A    between atoms: O_2  and  C_3 
REMARK    2  A    between atoms: C_5  and  C_3 
REMARK    3  A    between atoms: C_7  and  C_8 
REMARK       I    between atoms: N_15  and  C_16 
REMARK    4  A    between atoms: C_16  and  C_18 
REMARK    5  A    between atoms: C_18  and  N_19 
ROOT
HETATM    1  C   UNK N   1     157.790 143.997 160.252  0.00  0.00     0.104 C 
HETATM    2  C   UNK N   1     157.167 145.249 159.630  0.00  0.00     0.027 C 
HETATM    3  C   UNK N   1     158.229 146.061 158.886  0.00  0.00     0.037 C 
HETATM    4  C   UNK N   1     159.185 146.622 159.941  0.00  0.00     0.135 C 
HETATM    5  N   UNK N   1     159.555 145.595 160.908  0.00  0.00    -0.349 N 
HETATM    6  C   UNK N   1     160.124 145.946 162.095  0.00  0.00     0.239 C 
HETATM    7  O   UNK N   1     160.413 145.084 162.915  0.00  0.00    -0.271 OA
HETATM    8  C   UNK N   1     159.275 144.197 160.612  0.00  0.00     0.140 C 
ENDROOT
BRANCH   6   9
HETATM    9  C   UNK N   1     160.388 147.399 162.415  0.00  0.00     0.257 C 
BRANCH   9  10
HETATM   10  N   UNK N   1     161.405 147.537 163.447  0.00  0.00    -0.232 N 
HETATM   11  N   UNK N   1     162.675 147.174 163.304  0.00  0.00    -0.278 N 
HETATM   12  C   UNK N   1     163.290 147.498 164.466  0.00  0.00     0.130 A 
ATOM     13  HN  UNK N   1     163.101 146.739 162.486  1.00  0.00     0.189 HD
HETATM   14  C   UNK N   1     164.631 147.316 164.781  0.00  0.00     0.050 A 
HETATM   15  N   UNK N   1     162.435 148.057 165.338  0.00  0.00    -0.258 N 
HETATM   16  C   UNK N   1     165.054 147.743 166.053  0.00  0.00     0.005 A 
HETATM   17  C   UNK N   1     164.138 148.328 166.954  0.00  0.00     0.018 A 
HETATM   18  C   UNK N   1     162.795 148.483 166.574  0.00  0.00     0.103 A 
HETATM   19  C   UNK N   1     161.255 148.073 164.685  0.00  0.00     0.349 A 
HETATM   20  O   UNK N   1     160.212 148.513 165.135  0.00  0.00    -0.244 OA
ENDBRANCH   9  10
ENDBRANCH   6   9
BRANCH   3  21
HETATM   21  C   UNK N   1     157.648 147.130 158.003  0.00  0.00    -0.052 A 
HETATM   22  C   UNK N   1     157.704 147.025 156.604  0.00  0.00     0.007 A 
HETATM   23  C   UNK N   1     157.195 148.044 155.797  0.00  0.00     0.001 A 
HETATM   24  C   UNK N   1     156.621 149.175 156.382  0.00  0.00     0.000 A 
HETATM   25  C   UNK N   1     156.562 149.289 157.774  0.00  0.00     0.001 A 
HETATM   26  C   UNK N   1     157.081 148.274 158.582  0.00  0.00     0.007 A 
ENDBRANCH   3  21
BRANCH   1  27
HETATM   27  C   UNK N   1     157.643 142.882 159.270  0.00  0.00     0.264 C 
HETATM   28  O   UNK N   1     156.548 142.365 159.104  0.00  0.00    -0.265 OA
BRANCH  27  29
HETATM   29  O   UNK N   1     158.715 142.496 158.530  0.00  0.00    -0.326 OA
HETATM   30  C   UNK N   1     158.808 142.740 157.181  0.00  0.00     0.213 C 
ENDBRANCH  27  29
ENDBRANCH   1  27
TORSDOF 5
ENDMDL
MODEL 6
REMARK VINA RESULT:      -6.1      4.591      9.858
REMARK  5 active torsions:
REMARK  status: ('A' for Active; 'I' for Inactive)
REMARK    1  A    between atoms: O_2  and  C_3 
REMARK    2  A    between atoms: C_5  and  C_3 
REMARK    3  A    between atoms: C_7  and  C_8 
REMARK       I    between atoms: N_15  and  C_16 
REMARK    4  A    between atoms: C_16  and  C_18 
REMARK    5  A    between atoms: C_18  and  N_19 
ROOT
HETATM    1  C   UNK N   1     156.088 157.682 155.243  0.00  0.00     0.104 C 
HETATM    2  C   UNK N   1     155.591 156.665 156.273  0.00  0.00     0.027 C 
HETATM    3  C   UNK N   1     155.460 157.320 157.650  0.00  0.00     0.037 C 
HETATM    4  C   UNK N   1     156.875 157.650 158.126  0.00  0.00     0.135 C 
HETATM    5  N   UNK N   1     157.652 158.274 157.061  0.00  0.00    -0.349 N 
HETATM    6  C   UNK N   1     159.008 158.352 157.158  0.00  0.00     0.239 C 
HETATM    7  O   UNK N   1     159.659 158.855 156.251  0.00  0.00    -0.271 OA
HETATM    8  C   UNK N   1     156.969 158.776 155.876  0.00  0.00     0.140 C 
ENDROOT
BRANCH   6   9
HETATM    9  C   UNK N   1     159.719 157.804 158.373  0.00  0.00     0.257 C 
BRANCH   9  10
HETATM   10  N   UNK N   1     160.762 156.861 157.996  0.00  0.00    -0.232 N 
HETATM   11  N   UNK N   1     160.962 156.415 156.761  0.00  0.00    -0.278 N 
HETATM   12  C   UNK N   1     162.036 155.594 156.828  0.00  0.00     0.130 A 
ATOM     13  HN  UNK N   1     160.417 156.644 155.930  1.00  0.00     0.189 HD
HETATM   14  C   UNK N   1     162.627 154.902 155.778  0.00  0.00     0.050 A 
HETATM   15  N   UNK N   1     162.518 155.513 158.080  0.00  0.00    -0.258 N 
HETATM   16  C   UNK N   1     163.750 154.112 156.082  0.00  0.00     0.005 A 
HETATM   17  C   UNK N   1     164.238 154.041 157.405  0.00  0.00     0.018 A 
HETATM   18  C   UNK N   1     163.595 154.765 158.422  0.00  0.00     0.103 A 
HETATM   19  C   UNK N   1     161.705 156.311 158.802  0.00  0.00     0.349 A 
HETATM   20  O   UNK N   1     161.811 156.519 159.998  0.00  0.00    -0.244 OA
ENDBRANCH   9  10
ENDBRANCH   6   9
BRANCH   3  21
HETATM   21  C   UNK N   1     154.697 156.479 158.636  0.00  0.00    -0.052 A 
HETATM   22  C   UNK N   1     153.802 155.487 158.205  0.00  0.00     0.007 A 
HETATM   23  C   UNK N   1     153.072 154.740 159.131  0.00  0.00     0.001 A 
HETATM   24  C   UNK N   1     153.235 154.977 160.498  0.00  0.00     0.000 A 
HETATM   25  C   UNK N   1     154.123 155.963 160.937  0.00  0.00     0.001 A 
HETATM   26  C   UNK N   1     154.846 156.718 160.009  0.00  0.00     0.007 A 
ENDBRANCH   3  21
BRANCH   1  27
HETATM   27  C   UNK N   1     154.889 158.296 154.597  0.00  0.00     0.264 C 
HETATM   28  O   UNK N   1     154.958 159.433 154.156  0.00  0.00    -0.265 OA
BRANCH  27  29
HETATM   29  O   UNK N   1     153.756 157.561 154.454  0.00  0.00    -0.326 OA
HETATM   30  C   UNK N   1     153.416 156.948 153.272  0.00  0.00     0.213 C 
ENDBRANCH  27  29
ENDBRANCH   1  27
TORSDOF 5
ENDMDL
MODEL 7
REMARK VINA RESULT:      -6.1      4.934     10.236
REMARK  5 active torsions:
REMARK  status: ('A' for Active; 'I' for Inactive)
REMARK    1  A    between atoms: O_2  and  C_3 
REMARK    2  A    between atoms: C_5  and  C_3 
REMARK    3  A    between atoms: C_7  and  C_8 
REMARK       I    between atoms: N_15  and  C_16 
REMARK    4  A    between atoms: C_16  and  C_18 
REMARK    5  A    between atoms: C_18  and  N_19 
ROOT
HETATM    1  C   UNK N   1     155.154 157.681 155.509  0.00  0.00     0.104 C 
HETATM    2  C   UNK N   1     155.059 156.763 156.730  0.00  0.00     0.027 C 
HETATM    3  C   UNK N   1     155.139 157.581 158.020  0.00  0.00     0.037 C 
HETATM    4  C   UNK N   1     156.557 158.147 158.106  0.00  0.00     0.135 C 
HETATM    5  N   UNK N   1     156.973 158.708 156.826  0.00  0.00    -0.349 N 
HETATM    6  C   UNK N   1     158.289 158.966 156.586  0.00  0.00     0.239 C 
HETATM    7  O   UNK N   1     158.638 159.416 155.503  0.00  0.00    -0.271 OA
HETATM    8  C   UNK N   1     155.976 158.953 155.793  0.00  0.00     0.140 C 
ENDROOT
BRANCH   6   9
HETATM    9  C   UNK N   1     159.328 158.685 157.647  0.00  0.00     0.257 C 
BRANCH   9  10
HETATM   10  N   UNK N   1     160.460 157.955 157.097  0.00  0.00    -0.232 N 
HETATM   11  N   UNK N   1     161.354 158.471 156.261  0.00  0.00    -0.278 N 
HETATM   12  C   UNK N   1     162.253 157.488 156.020  0.00  0.00     0.130 A 
ATOM     13  HN  UNK N   1     161.362 159.416 155.879  1.00  0.00     0.189 HD
HETATM   14  C   UNK N   1     163.379 157.565 155.210  0.00  0.00     0.050 A 
HETATM   15  N   UNK N   1     161.945 156.362 156.686  0.00  0.00    -0.258 N 
HETATM   16  C   UNK N   1     164.182 156.414 155.117  0.00  0.00     0.005 A 
HETATM   17  C   UNK N   1     163.839 155.242 155.826  0.00  0.00     0.018 A 
HETATM   18  C   UNK N   1     162.686 155.229 156.627  0.00  0.00     0.103 A 
HETATM   19  C   UNK N   1     160.816 156.671 157.356  0.00  0.00     0.349 A 
HETATM   20  O   UNK N   1     160.210 155.912 158.094  0.00  0.00    -0.244 OA
ENDBRANCH   9  10
ENDBRANCH   6   9
BRANCH   3  21
HETATM   21  C   UNK N   1     154.753 156.797 159.244  0.00  0.00    -0.052 A 
HETATM   22  C   UNK N   1     153.705 155.863 159.207  0.00  0.00     0.007 A 
HETATM   23  C   UNK N   1     153.332 155.170 160.359  0.00  0.00     0.001 A 
HETATM   24  C   UNK N   1     154.007 155.403 161.560  0.00  0.00     0.000 A 
HETATM   25  C   UNK N   1     155.050 156.332 161.608  0.00  0.00     0.001 A 
HETATM   26  C   UNK N   1     155.417 157.033 160.456  0.00  0.00     0.007 A 
ENDBRANCH   3  21
BRANCH   1  27
HETATM   27  C   UNK N   1     153.762 158.045 155.108  0.00  0.00     0.264 C 
HETATM   28  O   UNK N   1     153.329 159.156 155.377  0.00  0.00    -0.265 OA
BRANCH  27  29
HETATM   29  O   UNK N   1     153.017 157.161 154.397  0.00  0.00    -0.326 OA
HETATM   30  C   UNK N   1     153.322 156.808 153.104  0.00  0.00     0.213 C 
ENDBRANCH  27  29
ENDBRANCH   1  27
TORSDOF 5
ENDMDL
MODEL 8
REMARK VINA RESULT:      -6.1      2.708      7.179
REMARK  5 active torsions:
REMARK  status: ('A' for Active; 'I' for Inactive)
REMARK    1  A    between atoms: O_2  and  C_3 
REMARK    2  A    between atoms: C_5  and  C_3 
REMARK    3  A    between atoms: C_7  and  C_8 
REMARK       I    between atoms: N_15  and  C_16 
REMARK    4  A    between atoms: C_16  and  C_18 
REMARK    5  A    between atoms: C_18  and  N_19 
ROOT
HETATM    1  C   UNK N   1     164.381 155.690 158.459  0.00  0.00     0.104 C 
HETATM    2  C   UNK N   1     165.411 156.808 158.630  0.00  0.00     0.027 C 
HETATM    3  C   UNK N   1     165.638 157.533 157.302  0.00  0.00     0.037 C 
HETATM    4  C   UNK N   1     166.334 156.545 156.364  0.00  0.00     0.135 C 
HETATM    5  N   UNK N   1     165.690 155.238 156.414  0.00  0.00    -0.349 N 
HETATM    6  C   UNK N   1     166.328 154.141 155.919  0.00  0.00     0.239 C 
HETATM    7  O   UNK N   1     165.794 153.041 155.982  0.00  0.00    -0.271 OA
HETATM    8  C   UNK N   1     164.378 155.109 157.032  0.00  0.00     0.140 C 
ENDROOT
BRANCH   6   9
HETATM    9  C   UNK N   1     167.702 154.270 155.304  0.00  0.00     0.257 C 
BRANCH   9  10
HETATM   10  N   UNK N   1     167.654 154.100 153.860  0.00  0.00    -0.232 N 
HETATM   11  N   UNK N   1     167.085 154.958 153.020  0.00  0.00    -0.278 N 
HETATM   12  C   UNK N   1     167.286 154.457 151.779  0.00  0.00     0.130 A 
ATOM     13  HN  UNK N   1     166.595 155.819 153.262  1.00  0.00     0.189 HD
HETATM   14  C   UNK N   1     166.877 155.017 150.575  0.00  0.00     0.050 A 
HETATM   15  N   UNK N   1     167.970 153.301 151.818  0.00  0.00    -0.258 N 
HETATM   16  C   UNK N   1     167.210 154.322 149.398  0.00  0.00     0.005 A 
HETATM   17  C   UNK N   1     167.930 153.109 149.463  0.00  0.00     0.018 A 
HETATM   18  C   UNK N   1     168.313 152.595 150.712  0.00  0.00     0.103 A 
HETATM   19  C   UNK N   1     168.191 153.089 153.131  0.00  0.00     0.349 A 
HETATM   20  O   UNK N   1     168.796 152.137 153.594  0.00  0.00    -0.244 OA
ENDBRANCH   9  10
ENDBRANCH   6   9
BRANCH   3  21
HETATM   21  C   UNK N   1     166.398 158.822 157.453  0.00  0.00    -0.052 A 
HETATM   22  C   UNK N   1     167.520 158.909 158.294  0.00  0.00     0.007 A 
HETATM   23  C   UNK N   1     168.192 160.122 158.454  0.00  0.00     0.001 A 
HETATM   24  C   UNK N   1     167.751 161.258 157.772  0.00  0.00     0.000 A 
HETATM   25  C   UNK N   1     166.634 161.181 156.934  0.00  0.00     0.001 A 
HETATM   26  C   UNK N   1     165.955 159.970 156.781  0.00  0.00     0.007 A 
ENDBRANCH   3  21
BRANCH   1  27
HETATM   27  C   UNK N   1     163.038 156.256 158.788  0.00  0.00     0.264 C 
HETATM   28  O   UNK N   1     162.127 156.156 157.979  0.00  0.00    -0.265 OA
BRANCH  27  29
HETATM   29  O   UNK N   1     162.831 156.823 160.004  0.00  0.00    -0.326 OA
HETATM   30  C   UNK N   1     162.288 156.130 161.059  0.00  0.00     0.213 C 
ENDBRANCH  27  29
ENDBRANCH   1  27
TORSDOF 5
ENDMDL
MODEL 9
REMARK VINA RESULT:      -6.0     10.746     13.620
REMARK  5 active torsions:
REMARK  status: ('A' for Active; 'I' for Inactive)
REMARK    1  A    between atoms: O_2  and  C_3 
REMARK    2  A    between atoms: C_5  and  C_3 
REMARK    3  A    between atoms: C_7  and  C_8 
REMARK       I    between atoms: N_15  and  C_16 
REMARK    4  A    between atoms: C_16  and  C_18 
REMARK    5  A    between atoms: C_18  and  N_19 
ROOT
HETATM    1  C   UNK N   1     160.987 147.696 163.848  0.00  0.00     0.104 C 
HETATM    2  C   UNK N   1     159.804 147.045 164.567  0.00  0.00     0.027 C 
HETATM    3  C   UNK N   1     159.777 145.540 164.296  0.00  0.00     0.037 C 
HETATM    4  C   UNK N   1     159.442 145.356 162.815  0.00  0.00     0.135 C 
HETATM    5  N   UNK N   1     160.229 146.262 161.986  0.00  0.00    -0.349 N 
HETATM    6  C   UNK N   1     159.868 146.496 160.694  0.00  0.00     0.239 C 
HETATM    7  O   UNK N   1     160.517 147.274 160.007  0.00  0.00    -0.271 OA
HETATM    8  C   UNK N   1     161.380 146.943 162.563  0.00  0.00     0.140 C 
ENDROOT
BRANCH   6   9
HETATM    9  C   UNK N   1     158.656 145.813 160.104  0.00  0.00     0.257 C 
BRANCH   9  10
HETATM   10  N   UNK N   1     157.718 146.780 159.554  0.00  0.00    -0.232 N 
HETATM   11  N   UNK N   1     157.987 147.598 158.544  0.00  0.00    -0.278 N 
HETATM   12  C   UNK N   1     156.853 148.302 158.320  0.00  0.00     0.130 A 
ATOM     13  HN  UNK N   1     158.869 147.680 158.039  1.00  0.00     0.189 HD
HETATM   14  C   UNK N   1     156.651 149.275 157.348  0.00  0.00     0.050 A 
HETATM   15  N   UNK N   1     155.874 147.946 159.168  0.00  0.00    -0.258 N 
HETATM   16  C   UNK N   1     155.377 149.870 157.291  0.00  0.00     0.005 A 
HETATM   17  C   UNK N   1     154.364 149.479 158.194  0.00  0.00     0.018 A 
HETATM   18  C   UNK N   1     154.633 148.491 159.153  0.00  0.00     0.103 A 
HETATM   19  C   UNK N   1     156.433 146.991 159.938  0.00  0.00     0.349 A 
HETATM   20  O   UNK N   1     155.866 146.396 160.838  0.00  0.00    -0.244 OA
ENDBRANCH   9  10
ENDBRANCH   6   9
BRANCH   3  21
HETATM   21  C   UNK N   1     158.837 144.791 165.200  0.00  0.00    -0.052 A 
HETATM   22  C   UNK N   1     158.676 143.401 165.087  0.00  0.00     0.007 A 
HETATM   23  C   UNK N   1     157.771 142.724 165.907  0.00  0.00     0.001 A 
HETATM   24  C   UNK N   1     157.022 143.432 166.850  0.00  0.00     0.000 A 
HETATM   25  C   UNK N   1     157.174 144.817 166.968  0.00  0.00     0.001 A 
HETATM   26  C   UNK N   1     158.073 145.495 166.140  0.00  0.00     0.007 A 
ENDBRANCH   3  21
BRANCH   1  27
HETATM   27  C   UNK N   1     162.137 147.724 164.801  0.00  0.00     0.264 C 
HETATM   28  O   UNK N   1     161.937 147.982 165.979  0.00  0.00    -0.265 OA
BRANCH  27  29
HETATM   29  O   UNK N   1     163.380 147.405 164.359  0.00  0.00    -0.326 OA
HETATM   30  C   UNK N   1     164.370 148.343 164.194  0.00  0.00     0.213 C 
ENDBRANCH  27  29
ENDBRANCH   1  27
TORSDOF 5
ENDMDL
