MODEL 1
REMARK VINA RESULT:      -5.7      0.000      0.000
REMARK  4 active torsions:
REMARK  status: ('A' for Active; 'I' for Inactive)
REMARK    1  A    between atoms: C_2  and  C_3 
REMARK       I    between atoms: C_2  and  N_10 
REMARK    2  A    between atoms: C_13  and  S_14 
REMARK    3  A    between atoms: S_14  and  N_17 
REMARK    4  A    between atoms: N_17  and  C_18 
ROOT
HETATM    1  O   UNK N   1     167.736 154.616 151.317  0.00  0.00    -0.267 OA
HETATM    2  C   UNK N   1     167.603 154.654 152.529  0.00  0.00     0.256 C 
HETATM    3  N   UNK N   1     167.989 153.596 153.299  0.00  0.00    -0.347 N 
HETATM    4  C   UNK N   1     167.664 153.483 154.698  0.00  0.00     0.127 C 
HETATM    5  C   UNK N   1     167.977 152.035 155.039  0.00  0.00     0.043 C 
HETATM    6  C   UNK N   1     169.018 151.670 154.000  0.00  0.00     0.143 C 
HETATM    7  C   UNK N   1     168.634 152.437 152.753  0.00  0.00     0.147 C 
ENDROOT
BRANCH   2   8
HETATM    8  C   UNK N   1     166.966 155.834 153.149  0.00  0.00     0.063 A 
HETATM    9  C   UNK N   1     165.585 155.868 153.493  0.00  0.00     0.050 A 
HETATM   10  C   UNK N   1     165.223 157.065 154.117  0.00  0.00     0.077 A 
HETATM   11 Cl   UNK N   1     163.649 157.457 154.773  0.00  0.00    -0.076 Cl
HETATM   12  S   UNK N   1     166.568 158.030 154.186  0.00  0.00    -0.065 SA
HETATM   13  C   UNK N   1     167.658 157.010 153.478  0.00  0.00     0.091 A 
HETATM   14 Cl   UNK N   1     169.337 157.396 153.138  0.00  0.00    -0.075 Cl
ENDBRANCH   2   8
BRANCH   6  15
HETATM   15  S   UNK N   1     169.215 149.892 153.710  0.00  0.00     0.215 S 
HETATM   16  O   UNK N   1     170.257 149.229 154.626  0.00  0.00    -0.211 OA
HETATM   17  O   UNK N   1     167.960 149.042 153.954  0.00  0.00    -0.211 OA
BRANCH  15  18
HETATM   18  N   UNK N   1     169.747 149.477 152.073  0.00  0.00    -0.215 NA
HETATM   19  H   UNK N   1     170.519 148.810 152.107  0.00  0.00     0.140 HD
BRANCH  18  20
HETATM   20  C   UNK N   1     168.610 148.907 151.362  0.00  0.00     0.071 A 
HETATM   21  C   UNK N   1     169.060 148.302 150.042  0.00  0.00     0.022 A 
HETATM   22  C   UNK N   1     168.410 149.666 150.065  0.00  0.00     0.022 A 
ENDBRANCH  18  20
ENDBRANCH  15  18
ENDBRANCH   6  15
TORSDOF 4
ENDMDL
MODEL 2
REMARK VINA RESULT:      -5.5      4.030      5.692
REMARK  4 active torsions:
REMARK  status: ('A' for Active; 'I' for Inactive)
REMARK    1  A    between atoms: C_2  and  C_3 
REMARK       I    between atoms: C_2  and  N_10 
REMARK    2  A    between atoms: C_13  and  S_14 
REMARK    3  A    between atoms: S_14  and  N_17 
REMARK    4  A    between atoms: N_17  and  C_18 
ROOT
HETATM    1  O   UNK N   1     164.645 152.868 156.680  0.00  0.00    -0.267 OA
HETATM    2  C   UNK N   1     164.828 154.052 156.911  0.00  0.00     0.256 C 
HETATM    3  N   UNK N   1     165.733 154.765 156.180  0.00  0.00    -0.347 N 
HETATM    4  C   UNK N   1     166.156 156.096 156.537  0.00  0.00     0.127 C 
HETATM    5  C   UNK N   1     167.384 156.342 155.677  0.00  0.00     0.043 C 
HETATM    6  C   UNK N   1     167.153 155.414 154.500  0.00  0.00     0.143 C 
HETATM    7  C   UNK N   1     166.446 154.204 155.070  0.00  0.00     0.147 C 
ENDROOT
BRANCH   2   8
HETATM    8  C   UNK N   1     164.103 154.690 158.029  0.00  0.00     0.063 A 
HETATM    9  C   UNK N   1     164.566 154.636 159.374  0.00  0.00     0.050 A 
HETATM   10  C   UNK N   1     163.746 155.357 160.246  0.00  0.00     0.077 A 
HETATM   11 Cl   UNK N   1     164.022 155.612 161.954  0.00  0.00    -0.076 Cl
HETATM   12  S   UNK N   1     162.494 155.988 159.364  0.00  0.00    -0.065 SA
HETATM   13  C   UNK N   1     162.917 155.424 157.869  0.00  0.00     0.091 A 
HETATM   14 Cl   UNK N   1     161.986 155.649 156.398  0.00  0.00    -0.075 Cl
ENDBRANCH   2   8
BRANCH   6  15
HETATM   15  S   UNK N   1     168.642 154.992 153.557  0.00  0.00     0.215 S 
HETATM   16  O   UNK N   1     168.352 154.542 152.116  0.00  0.00    -0.211 OA
HETATM   17  O   UNK N   1     169.642 156.140 153.358  0.00  0.00    -0.211 OA
BRANCH  15  18
HETATM   18  N   UNK N   1     169.587 153.665 154.247  0.00  0.00    -0.215 NA
HETATM   19  H   UNK N   1     169.333 153.515 155.224  0.00  0.00     0.140 HD
BRANCH  18  20
HETATM   20  C   UNK N   1     169.323 152.467 153.460  0.00  0.00     0.071 A 
HETATM   21  C   UNK N   1     168.989 151.298 154.371  0.00  0.00     0.022 A 
HETATM   22  C   UNK N   1     170.375 151.424 153.781  0.00  0.00     0.022 A 
ENDBRANCH  18  20
ENDBRANCH  15  18
ENDBRANCH   6  15
TORSDOF 4
ENDMDL
MODEL 3
REMARK VINA RESULT:      -5.5      4.015      5.478
REMARK  4 active torsions:
REMARK  status: ('A' for Active; 'I' for Inactive)
REMARK    1  A    between atoms: C_2  and  C_3 
REMARK       I    between atoms: C_2  and  N_10 
REMARK    2  A    between atoms: C_13  and  S_14 
REMARK    3  A    between atoms: S_14  and  N_17 
REMARK    4  A    between atoms: N_17  and  C_18 
ROOT
HETATM    1  O   UNK N   1     164.672 152.832 156.778  0.00  0.00    -0.267 OA
HETATM    2  C   UNK N   1     164.802 154.039 156.903  0.00  0.00     0.256 C 
HETATM    3  N   UNK N   1     165.690 154.721 156.124  0.00  0.00    -0.347 N 
HETATM    4  C   UNK N   1     166.051 156.095 156.364  0.00  0.00     0.127 C 
HETATM    5  C   UNK N   1     167.285 156.314 155.503  0.00  0.00     0.043 C 
HETATM    6  C   UNK N   1     167.114 155.275 154.412  0.00  0.00     0.143 C 
HETATM    7  C   UNK N   1     166.447 154.092 155.080  0.00  0.00     0.147 C 
ENDROOT
BRANCH   2   8
HETATM    8  C   UNK N   1     164.030 154.744 157.946  0.00  0.00     0.063 A 
HETATM    9  C   UNK N   1     162.733 155.281 157.710  0.00  0.00     0.050 A 
HETATM   10  C   UNK N   1     162.178 155.852 158.859  0.00  0.00     0.077 A 
HETATM   11 Cl   UNK N   1     160.573 156.531 159.006  0.00  0.00    -0.076 Cl
HETATM   12  S   UNK N   1     163.286 155.713 160.082  0.00  0.00    -0.065 SA
HETATM   13  C   UNK N   1     164.484 154.925 159.262  0.00  0.00     0.091 A 
HETATM   14 Cl   UNK N   1     166.051 154.491 159.924  0.00  0.00    -0.075 Cl
ENDBRANCH   2   8
BRANCH   6  15
HETATM   15  S   UNK N   1     168.636 154.833 153.534  0.00  0.00     0.215 S 
HETATM   16  O   UNK N   1     168.395 154.291 152.116  0.00  0.00    -0.211 OA
HETATM   17  O   UNK N   1     169.616 155.990 153.293  0.00  0.00    -0.211 OA
BRANCH  15  18
HETATM   18  N   UNK N   1     169.592 153.571 154.326  0.00  0.00    -0.215 NA
HETATM   19  H   UNK N   1     169.340 153.497 155.312  0.00  0.00     0.140 HD
BRANCH  18  20
HETATM   20  C   UNK N   1     169.335 152.312 153.637  0.00  0.00     0.071 A 
HETATM   21  C   UNK N   1     169.533 151.141 154.584  0.00  0.00     0.022 A 
HETATM   22  C   UNK N   1     170.616 151.503 153.594  0.00  0.00     0.022 A 
ENDBRANCH  18  20
ENDBRANCH  15  18
ENDBRANCH   6  15
TORSDOF 4
ENDMDL
MODEL 4
REMARK VINA RESULT:      -5.4      1.867      2.595
REMARK  4 active torsions:
REMARK  status: ('A' for Active; 'I' for Inactive)
REMARK    1  A    between atoms: C_2  and  C_3 
REMARK       I    between atoms: C_2  and  N_10 
REMARK    2  A    between atoms: C_13  and  S_14 
REMARK    3  A    between atoms: S_14  and  N_17 
REMARK    4  A    between atoms: N_17  and  C_18 
ROOT
HETATM    1  O   UNK N   1     167.853 154.544 151.405  0.00  0.00    -0.267 OA
HETATM    2  C   UNK N   1     167.675 154.584 152.612  0.00  0.00     0.256 C 
HETATM    3  N   UNK N   1     168.016 153.520 153.395  0.00  0.00    -0.347 N 
HETATM    4  C   UNK N   1     167.636 153.412 154.780  0.00  0.00     0.127 C 
HETATM    5  C   UNK N   1     167.915 151.960 155.132  0.00  0.00     0.043 C 
HETATM    6  C   UNK N   1     168.990 151.579 154.133  0.00  0.00     0.143 C 
HETATM    7  C   UNK N   1     168.665 152.352 152.873  0.00  0.00     0.147 C 
ENDROOT
BRANCH   2   8
HETATM    8  C   UNK N   1     167.031 155.773 153.207  0.00  0.00     0.063 A 
HETATM    9  C   UNK N   1     165.644 155.818 153.522  0.00  0.00     0.050 A 
HETATM   10  C   UNK N   1     165.276 157.023 154.127  0.00  0.00     0.077 A 
HETATM   11 Cl   UNK N   1     163.691 157.430 154.746  0.00  0.00    -0.076 Cl
HETATM   12  S   UNK N   1     166.625 157.979 154.218  0.00  0.00    -0.065 SA
HETATM   13  C   UNK N   1     167.724 156.947 153.542  0.00  0.00     0.091 A 
HETATM   14 Cl   UNK N   1     169.412 157.320 153.236  0.00  0.00    -0.075 Cl
ENDBRANCH   2   8
BRANCH   6  15
HETATM   15  S   UNK N   1     169.172 149.799 153.849  0.00  0.00     0.215 S 
HETATM   16  O   UNK N   1     168.960 149.382 152.385  0.00  0.00    -0.211 OA
HETATM   17  O   UNK N   1     170.559 149.220 154.168  0.00  0.00    -0.211 OA
BRANCH  15  18
HETATM   18  N   UNK N   1     168.030 148.797 154.758  0.00  0.00    -0.215 NA
HETATM   19  H   UNK N   1     167.497 148.199 154.125  0.00  0.00     0.140 HD
BRANCH  18  20
HETATM   20  C   UNK N   1     168.792 147.990 155.702  0.00  0.00     0.071 A 
HETATM   21  C   UNK N   1     167.857 147.292 156.676  0.00  0.00     0.022 A 
HETATM   22  C   UNK N   1     168.590 148.544 157.099  0.00  0.00     0.022 A 
ENDBRANCH  18  20
ENDBRANCH  15  18
ENDBRANCH   6  15
TORSDOF 4
ENDMDL
MODEL 5
REMARK VINA RESULT:      -5.3     13.582     14.927
REMARK  4 active torsions:
REMARK  status: ('A' for Active; 'I' for Inactive)
REMARK    1  A    between atoms: C_2  and  C_3 
REMARK       I    between atoms: C_2  and  N_10 
REMARK    2  A    between atoms: C_13  and  S_14 
REMARK    3  A    between atoms: S_14  and  N_17 
REMARK    4  A    between atoms: N_17  and  C_18 
ROOT
HETATM    1  O   UNK N   1     153.073 146.889 153.500  0.00  0.00    -0.267 OA
HETATM    2  C   UNK N   1     154.225 146.649 153.174  0.00  0.00     0.256 C 
HETATM    3  N   UNK N   1     155.253 146.912 154.030  0.00  0.00    -0.347 N 
HETATM    4  C   UNK N   1     156.637 146.859 153.634  0.00  0.00     0.127 C 
HETATM    5  C   UNK N   1     157.378 147.547 154.769  0.00  0.00     0.043 C 
HETATM    6  C   UNK N   1     156.441 147.344 155.944  0.00  0.00     0.143 C 
HETATM    7  C   UNK N   1     155.044 147.398 155.363  0.00  0.00     0.147 C 
ENDROOT
BRANCH   2   8
HETATM    8  C   UNK N   1     154.496 146.124 151.820  0.00  0.00     0.063 A 
HETATM    9  C   UNK N   1     154.651 146.971 150.686  0.00  0.00     0.050 A 
HETATM   10  C   UNK N   1     154.957 146.253 149.526  0.00  0.00     0.077 A 
HETATM   11 Cl   UNK N   1     155.313 146.930 147.953  0.00  0.00    -0.076 Cl
HETATM   12  S   UNK N   1     154.989 144.644 149.917  0.00  0.00    -0.065 SA
HETATM   13  C   UNK N   1     154.654 144.760 151.530  0.00  0.00     0.091 A 
HETATM   14 Cl   UNK N   1     154.454 143.402 152.626  0.00  0.00    -0.075 Cl
ENDBRANCH   2   8
BRANCH   6  15
HETATM   15  S   UNK N   1     156.685 148.495 157.322  0.00  0.00     0.215 S 
HETATM   16  O   UNK N   1     156.733 149.970 156.892  0.00  0.00    -0.211 OA
HETATM   17  O   UNK N   1     155.580 148.489 158.388  0.00  0.00    -0.211 OA
BRANCH  15  18
HETATM   18  N   UNK N   1     158.194 148.252 158.214  0.00  0.00    -0.215 NA
HETATM   19  H   UNK N   1     158.438 149.092 158.740  0.00  0.00     0.140 HD
BRANCH  18  20
HETATM   20  C   UNK N   1     158.008 147.121 159.114  0.00  0.00     0.071 A 
HETATM   21  C   UNK N   1     159.351 146.602 159.597  0.00  0.00     0.022 A 
HETATM   22  C   UNK N   1     158.620 145.885 158.486  0.00  0.00     0.022 A 
ENDBRANCH  18  20
ENDBRANCH  15  18
ENDBRANCH   6  15
TORSDOF 4
ENDMDL
MODEL 6
REMARK VINA RESULT:      -5.3      4.023      5.714
REMARK  4 active torsions:
REMARK  status: ('A' for Active; 'I' for Inactive)
REMARK    1  A    between atoms: C_2  and  C_3 
REMARK       I    between atoms: C_2  and  N_10 
REMARK    2  A    between atoms: C_13  and  S_14 
REMARK    3  A    between atoms: S_14  and  N_17 
REMARK    4  A    between atoms: N_17  and  C_18 
ROOT
HETATM    1  O   UNK N   1     163.751 158.111 154.199  0.00  0.00    -0.267 OA
HETATM    2  C   UNK N   1     164.220 157.729 155.259  0.00  0.00     0.256 C 
HETATM    3  N   UNK N   1     165.503 157.269 155.319  0.00  0.00    -0.347 N 
HETATM    4  C   UNK N   1     166.046 156.605 156.476  0.00  0.00     0.127 C 
HETATM    5  C   UNK N   1     167.337 155.978 155.977  0.00  0.00     0.043 C 
HETATM    6  C   UNK N   1     167.701 156.865 154.803  0.00  0.00     0.143 C 
HETATM    7  C   UNK N   1     166.384 157.284 154.187  0.00  0.00     0.147 C 
ENDROOT
BRANCH   2   8
HETATM    8  C   UNK N   1     163.365 157.715 156.463  0.00  0.00     0.063 A 
HETATM    9  C   UNK N   1     162.377 156.716 156.690  0.00  0.00     0.050 A 
HETATM   10  C   UNK N   1     161.733 156.876 157.921  0.00  0.00     0.077 A 
HETATM   11 Cl   UNK N   1     160.531 155.808 158.608  0.00  0.00    -0.076 Cl
HETATM   12  S   UNK N   1     162.359 158.225 158.650  0.00  0.00    -0.065 SA
HETATM   13  C   UNK N   1     163.464 158.656 157.499  0.00  0.00     0.091 A 
HETATM   14 Cl   UNK N   1     164.488 160.082 157.558  0.00  0.00    -0.075 Cl
ENDBRANCH   2   8
BRANCH   6  15
HETATM   15  S   UNK N   1     168.842 156.119 153.608  0.00  0.00     0.215 S 
HETATM   16  O   UNK N   1     168.173 155.723 152.282  0.00  0.00    -0.211 OA
HETATM   17  O   UNK N   1     169.997 157.022 153.149  0.00  0.00    -0.211 OA
BRANCH  15  18
HETATM   18  N   UNK N   1     169.612 154.628 154.171  0.00  0.00    -0.215 NA
HETATM   19  H   UNK N   1     169.606 154.585 155.191  0.00  0.00     0.140 HD
BRANCH  18  20
HETATM   20  C   UNK N   1     168.878 153.502 153.607  0.00  0.00     0.071 A 
HETATM   21  C   UNK N   1     168.559 152.484 154.689  0.00  0.00     0.022 A 
HETATM   22  C   UNK N   1     169.717 152.248 153.747  0.00  0.00     0.022 A 
ENDBRANCH  18  20
ENDBRANCH  15  18
ENDBRANCH   6  15
TORSDOF 4
ENDMDL
MODEL 7
REMARK VINA RESULT:      -5.2      4.414      5.608
REMARK  4 active torsions:
REMARK  status: ('A' for Active; 'I' for Inactive)
REMARK    1  A    between atoms: C_2  and  C_3 
REMARK       I    between atoms: C_2  and  N_10 
REMARK    2  A    between atoms: C_13  and  S_14 
REMARK    3  A    between atoms: S_14  and  N_17 
REMARK    4  A    between atoms: N_17  and  C_18 
ROOT
HETATM    1  O   UNK N   1     164.750 153.158 157.295  0.00  0.00    -0.267 OA
HETATM    2  C   UNK N   1     165.180 154.293 157.431  0.00  0.00     0.256 C 
HETATM    3  N   UNK N   1     165.970 154.850 156.469  0.00  0.00    -0.347 N 
HETATM    4  C   UNK N   1     166.685 156.087 156.660  0.00  0.00     0.127 C 
HETATM    5  C   UNK N   1     167.672 156.130 155.505  0.00  0.00     0.043 C 
HETATM    6  C   UNK N   1     166.994 155.267 154.459  0.00  0.00     0.143 C 
HETATM    7  C   UNK N   1     166.268 154.187 155.233  0.00  0.00     0.147 C 
ENDROOT
BRANCH   2   8
HETATM    8  C   UNK N   1     164.885 155.032 158.675  0.00  0.00     0.063 A 
HETATM    9  C   UNK N   1     163.716 155.830 158.834  0.00  0.00     0.050 A 
HETATM   10  C   UNK N   1     163.624 156.386 160.113  0.00  0.00     0.077 A 
HETATM   11 Cl   UNK N   1     162.299 157.346 160.732  0.00  0.00    -0.076 Cl
HETATM   12  S   UNK N   1     164.964 155.922 160.968  0.00  0.00    -0.065 SA
HETATM   13  C   UNK N   1     165.703 154.997 159.815  0.00  0.00     0.091 A 
HETATM   14 Cl   UNK N   1     167.261 154.208 159.992  0.00  0.00    -0.075 Cl
ENDBRANCH   2   8
BRANCH   6  15
HETATM   15  S   UNK N   1     168.097 154.609 153.181  0.00  0.00     0.215 S 
HETATM   16  O   UNK N   1     169.561 155.046 153.345  0.00  0.00    -0.211 OA
HETATM   17  O   UNK N   1     168.204 153.078 153.129  0.00  0.00    -0.211 OA
BRANCH  15  18
HETATM   18  N   UNK N   1     167.677 155.103 151.534  0.00  0.00    -0.215 NA
HETATM   19  H   UNK N   1     168.484 155.519 151.068  0.00  0.00     0.140 HD
BRANCH  18  20
HETATM   20  C   UNK N   1     167.222 153.921 150.812  0.00  0.00     0.071 A 
HETATM   21  C   UNK N   1     167.744 153.940 149.385  0.00  0.00     0.022 A 
HETATM   22  C   UNK N   1     166.320 154.356 149.674  0.00  0.00     0.022 A 
ENDBRANCH  18  20
ENDBRANCH  15  18
ENDBRANCH   6  15
TORSDOF 4
ENDMDL
MODEL 8
REMARK VINA RESULT:      -5.1      6.179      9.077
REMARK  4 active torsions:
REMARK  status: ('A' for Active; 'I' for Inactive)
REMARK    1  A    between atoms: C_2  and  C_3 
REMARK       I    between atoms: C_2  and  N_10 
REMARK    2  A    between atoms: C_13  and  S_14 
REMARK    3  A    between atoms: S_14  and  N_17 
REMARK    4  A    between atoms: N_17  and  C_18 
ROOT
HETATM    1  O   UNK N   1     165.724 153.881 158.085  0.00  0.00    -0.267 OA
HETATM    2  C   UNK N   1     165.607 154.679 157.170  0.00  0.00     0.256 C 
HETATM    3  N   UNK N   1     164.476 155.432 157.053  0.00  0.00    -0.347 N 
HETATM    4  C   UNK N   1     164.179 156.226 155.888  0.00  0.00     0.127 C 
HETATM    5  C   UNK N   1     162.712 156.592 156.048  0.00  0.00     0.043 C 
HETATM    6  C   UNK N   1     162.516 156.516 157.549  0.00  0.00     0.143 C 
HETATM    7  C   UNK N   1     163.418 155.395 158.020  0.00  0.00     0.147 C 
ENDROOT
BRANCH   2   8
HETATM    8  C   UNK N   1     166.677 154.777 156.156  0.00  0.00     0.063 A 
HETATM    9  C   UNK N   1     166.769 153.887 155.049  0.00  0.00     0.050 A 
HETATM   10  C   UNK N   1     167.829 154.210 154.196  0.00  0.00     0.077 A 
HETATM   11 Cl   UNK N   1     168.218 153.421 152.684  0.00  0.00    -0.076 Cl
HETATM   12  S   UNK N   1     168.617 155.518 154.836  0.00  0.00    -0.065 SA
HETATM   13  C   UNK N   1     167.678 155.761 156.173  0.00  0.00     0.091 A 
HETATM   14 Cl   UNK N   1     167.962 156.979 157.406  0.00  0.00    -0.075 Cl
ENDBRANCH   2   8
BRANCH   6  15
HETATM   15  S   UNK N   1     160.796 156.319 158.085  0.00  0.00     0.215 S 
HETATM   16  O   UNK N   1     160.155 157.622 158.592  0.00  0.00    -0.211 OA
HETATM   17  O   UNK N   1     159.816 155.861 156.995  0.00  0.00    -0.211 OA
BRANCH  15  18
HETATM   18  N   UNK N   1     160.576 155.178 159.420  0.00  0.00    -0.215 NA
HETATM   19  H   UNK N   1     161.257 154.420 159.358  0.00  0.00     0.140 HD
BRANCH  18  20
HETATM   20  C   UNK N   1     160.736 155.910 160.670  0.00  0.00     0.071 A 
HETATM   21  C   UNK N   1     161.171 154.970 161.781  0.00  0.00     0.022 A 
HETATM   22  C   UNK N   1     159.725 155.395 161.675  0.00  0.00     0.022 A 
ENDBRANCH  18  20
ENDBRANCH  15  18
ENDBRANCH   6  15
TORSDOF 4
ENDMDL
MODEL 9
REMARK VINA RESULT:      -5.1      2.549      3.241
REMARK  4 active torsions:
REMARK  status: ('A' for Active; 'I' for Inactive)
REMARK    1  A    between atoms: C_2  and  C_3 
REMARK       I    between atoms: C_2  and  N_10 
REMARK    2  A    between atoms: C_13  and  S_14 
REMARK    3  A    between atoms: S_14  and  N_17 
REMARK    4  A    between atoms: N_17  and  C_18 
ROOT
HETATM    1  O   UNK N   1     166.054 155.789 152.239  0.00  0.00    -0.267 OA
HETATM    2  C   UNK N   1     166.419 155.700 153.400  0.00  0.00     0.256 C 
HETATM    3  N   UNK N   1     167.276 154.709 153.779  0.00  0.00    -0.347 N 
HETATM    4  C   UNK N   1     167.573 154.413 155.158  0.00  0.00     0.127 C 
HETATM    5  C   UNK N   1     168.265 153.061 155.110  0.00  0.00     0.043 C 
HETATM    6  C   UNK N   1     168.845 153.037 153.709  0.00  0.00     0.143 C 
HETATM    7  C   UNK N   1     167.852 153.785 152.846  0.00  0.00     0.147 C 
ENDROOT
BRANCH   2   8
HETATM    8  C   UNK N   1     165.876 156.641 154.401  0.00  0.00     0.063 A 
HETATM    9  C   UNK N   1     166.591 157.792 154.839  0.00  0.00     0.050 A 
HETATM   10  C   UNK N   1     165.855 158.561 155.745  0.00  0.00     0.077 A 
HETATM   11 Cl   UNK N   1     166.341 160.091 156.439  0.00  0.00    -0.076 Cl
HETATM   12  S   UNK N   1     164.406 157.799 155.998  0.00  0.00    -0.065 SA
HETATM   13  C   UNK N   1     164.608 156.508 154.988  0.00  0.00     0.091 A 
HETATM   14 Cl   UNK N   1     163.466 155.191 154.783  0.00  0.00    -0.075 Cl
ENDBRANCH   2   8
BRANCH   6  15
HETATM   15  S   UNK N   1     169.240 151.387 153.075  0.00  0.00     0.215 S 
HETATM   16  O   UNK N   1     169.065 151.252 151.553  0.00  0.00    -0.211 OA
HETATM   17  O   UNK N   1     170.691 150.929 153.290  0.00  0.00    -0.211 OA
BRANCH  15  18
HETATM   18  N   UNK N   1     168.239 150.091 153.745  0.00  0.00    -0.215 NA
HETATM   19  H   UNK N   1     167.827 149.533 152.996  0.00  0.00     0.140 HD
BRANCH  18  20
HETATM   20  C   UNK N   1     169.085 149.262 154.595  0.00  0.00     0.071 A 
HETATM   21  C   UNK N   1     168.251 148.213 155.310  0.00  0.00     0.022 A 
HETATM   22  C   UNK N   1     168.679 149.464 156.041  0.00  0.00     0.022 A 
ENDBRANCH  18  20
ENDBRANCH  15  18
ENDBRANCH   6  15
TORSDOF 4
ENDMDL
