MODEL 1
REMARK VINA RESULT:      -5.7      0.000      0.000
REMARK  4 active torsions:
REMARK  status: ('A' for Active; 'I' for Inactive)
REMARK    1  A    between atoms: C_7  and  C_8 
REMARK    2  A    between atoms: C_11  and  N_12 
REMARK    3  A    between atoms: N_12  and  C_13 
REMARK    4  A    between atoms: C_13  and  C_14 
ROOT
HETATM    1  C   UNK N   1     167.084 155.655 152.723  0.00  0.00     0.017 A 
HETATM    2  C   UNK N   1     168.078 156.469 153.281  0.00  0.00     0.018 A 
HETATM    3  C   UNK N   1     167.720 157.574 154.057  0.00  0.00     0.030 A 
HETATM    4  C   UNK N   1     166.364 157.877 154.279  0.00  0.00     0.028 A 
HETATM    5  C   UNK N   1     165.378 157.061 153.722  0.00  0.00     0.030 A 
HETATM    6  C   UNK N   1     165.735 155.956 152.950  0.00  0.00     0.018 A 
ENDROOT
BRANCH   4   7
HETATM    7  N   UNK N   1     165.978 159.010 155.038  0.00  0.00    -0.384 N 
HETATM    8  H   UNK N   1     165.942 159.889 154.596  0.00  0.00     0.160 HD
BRANCH   7   9
HETATM    9  C   UNK N   1     165.633 158.921 156.439  0.00  0.00     0.178 C 
BRANCH   9  10
HETATM   10  C   UNK N   1     166.672 159.574 157.307  0.00  0.00     0.047 A 
HETATM   11  C   UNK N   1     166.894 160.931 157.465  0.00  0.00     0.047 A 
HETATM   12  C   UNK N   1     167.973 161.005 158.338  0.00  0.00     0.109 A 
HETATM   13  N   UNK N   1     168.356 159.753 158.667  0.00  0.00    -0.310 N 
HETATM   14  N   UNK N   1     167.565 158.901 158.043  0.00  0.00    -0.299 N 
ATOM     15  HN  UNK N   1     169.124 159.508 159.291  1.00  0.00     0.186 HD
HETATM   16  C   UNK N   1     167.689 157.457 158.145  0.00  0.00     0.177 C 
ENDBRANCH   9  10
ENDBRANCH   7   9
ENDBRANCH   4   7
BRANCH   1  17
HETATM   17  C   UNK N   1     167.443 154.493 151.906  0.00  0.00     0.174 A 
HETATM   18  N   UNK N   1     167.903 153.327 152.403  0.00  0.00    -0.277 N 
HETATM   19  N   UNK N   1     168.117 152.532 151.367  0.00  0.00    -0.281 N 
ATOM     20  HN  UNK N   1     168.056 153.102 153.386  1.00  0.00     0.189 HD
HETATM   21  C   UNK N   1     167.782 153.234 150.269  0.00  0.00     0.136 A 
ATOM     22  HN  UNK N   1     168.467 151.574 151.395  1.00  0.00     0.189 HD
HETATM   23  C   UNK N   1     167.872 152.712 148.881  0.00  0.00     0.099 C 
HETATM   24  O   UNK N   1     167.370 154.434 150.597  0.00  0.00    -0.278 OA
ENDBRANCH   1  17
TORSDOF 4
ENDMDL
MODEL 2
REMARK VINA RESULT:      -5.6      1.516      2.178
REMARK  4 active torsions:
REMARK  status: ('A' for Active; 'I' for Inactive)
REMARK    1  A    between atoms: C_7  and  C_8 
REMARK    2  A    between atoms: C_11  and  N_12 
REMARK    3  A    between atoms: N_12  and  C_13 
REMARK    4  A    between atoms: C_13  and  C_14 
ROOT
HETATM    1  C   UNK N   1     167.680 154.729 152.580  0.00  0.00     0.017 A 
HETATM    2  C   UNK N   1     166.891 155.793 153.036  0.00  0.00     0.018 A 
HETATM    3  C   UNK N   1     167.218 156.441 154.229  0.00  0.00     0.030 A 
HETATM    4  C   UNK N   1     168.335 156.029 154.979  0.00  0.00     0.028 A 
HETATM    5  C   UNK N   1     169.118 154.969 154.519  0.00  0.00     0.030 A 
HETATM    6  C   UNK N   1     168.794 154.324 153.326  0.00  0.00     0.018 A 
ENDROOT
BRANCH   4   7
HETATM    7  N   UNK N   1     168.668 156.653 156.208  0.00  0.00    -0.384 N 
HETATM    8  H   UNK N   1     169.595 156.950 156.355  0.00  0.00     0.160 HD
BRANCH   7   9
HETATM    9  C   UNK N   1     167.694 156.870 157.254  0.00  0.00     0.178 C 
BRANCH   9  10
HETATM   10  C   UNK N   1     167.774 158.267 157.802  0.00  0.00     0.047 A 
HETATM   11  C   UNK N   1     167.112 159.387 157.330  0.00  0.00     0.047 A 
HETATM   12  C   UNK N   1     167.546 160.418 158.155  0.00  0.00     0.109 A 
HETATM   13  N   UNK N   1     168.415 159.918 159.059  0.00  0.00    -0.310 N 
HETATM   14  N   UNK N   1     168.543 158.623 158.838  0.00  0.00    -0.299 N 
ATOM     15  HN  UNK N   1     168.891 160.450 159.787  1.00  0.00     0.186 HD
HETATM   16  C   UNK N   1     169.413 157.752 159.609  0.00  0.00     0.177 C 
ENDBRANCH   9  10
ENDBRANCH   7   9
ENDBRANCH   4   7
BRANCH   1  17
HETATM   17  C   UNK N   1     167.349 154.038 151.330  0.00  0.00     0.174 A 
HETATM   18  N   UNK N   1     167.802 152.812 150.997  0.00  0.00    -0.277 N 
HETATM   19  N   UNK N   1     167.295 152.532 149.807  0.00  0.00    -0.281 N 
ATOM     20  HN  UNK N   1     168.415 152.218 151.555  1.00  0.00     0.189 HD
HETATM   21  C   UNK N   1     166.550 153.593 149.449  0.00  0.00     0.136 A 
ATOM     22  HN  UNK N   1     167.442 151.679 149.268  1.00  0.00     0.189 HD
HETATM   23  C   UNK N   1     165.799 153.696 148.171  0.00  0.00     0.099 C 
HETATM   24  O   UNK N   1     166.582 154.515 150.380  0.00  0.00    -0.278 OA
ENDBRANCH   1  17
TORSDOF 4
ENDMDL
MODEL 3
REMARK VINA RESULT:      -5.6      1.553      2.258
REMARK  4 active torsions:
REMARK  status: ('A' for Active; 'I' for Inactive)
REMARK    1  A    between atoms: C_7  and  C_8 
REMARK    2  A    between atoms: C_11  and  N_12 
REMARK    3  A    between atoms: N_12  and  C_13 
REMARK    4  A    between atoms: C_13  and  C_14 
ROOT
HETATM    1  C   UNK N   1     167.625 154.851 152.935  0.00  0.00     0.017 A 
HETATM    2  C   UNK N   1     168.011 156.197 152.929  0.00  0.00     0.018 A 
HETATM    3  C   UNK N   1     168.234 156.863 154.136  0.00  0.00     0.030 A 
HETATM    4  C   UNK N   1     168.069 156.189 155.360  0.00  0.00     0.028 A 
HETATM    5  C   UNK N   1     167.686 154.848 155.360  0.00  0.00     0.030 A 
HETATM    6  C   UNK N   1     167.466 154.182 154.154  0.00  0.00     0.018 A 
ENDROOT
BRANCH   4   7
HETATM    7  N   UNK N   1     168.261 156.854 156.599  0.00  0.00    -0.384 N 
HETATM    8  H   UNK N   1     169.179 157.016 156.914  0.00  0.00     0.160 HD
BRANCH   7   9
HETATM    9  C   UNK N   1     167.156 157.302 157.414  0.00  0.00     0.178 C 
BRANCH   9  10
HETATM   10  C   UNK N   1     166.692 158.674 157.012  0.00  0.00     0.047 A 
HETATM   11  C   UNK N   1     167.196 159.887 157.452  0.00  0.00     0.047 A 
HETATM   12  C   UNK N   1     166.411 160.839 156.811  0.00  0.00     0.109 A 
HETATM   13  N   UNK N   1     165.500 160.208 156.041  0.00  0.00    -0.310 N 
HETATM   14  N   UNK N   1     165.680 158.906 156.168  0.00  0.00    -0.299 N 
ATOM     15  HN  UNK N   1     164.793 160.659 155.460  1.00  0.00     0.186 HD
HETATM   16  C   UNK N   1     164.868 157.907 155.496  0.00  0.00     0.177 C 
ENDBRANCH   9  10
ENDBRANCH   7   9
ENDBRANCH   4   7
BRANCH   1  17
HETATM   17  C   UNK N   1     167.386 154.138 151.676  0.00  0.00     0.174 A 
HETATM   18  N   UNK N   1     167.899 152.927 151.380  0.00  0.00    -0.277 N 
HETATM   19  N   UNK N   1     167.466 152.620 150.167  0.00  0.00    -0.281 N 
ATOM     20  HN  UNK N   1     168.501 152.359 151.975  1.00  0.00     0.189 HD
HETATM   21  C   UNK N   1     166.704 153.650 149.759  0.00  0.00     0.136 A 
ATOM     22  HN  UNK N   1     167.671 151.768 149.645  1.00  0.00     0.189 HD
HETATM   23  C   UNK N   1     166.019 153.716 148.442  0.00  0.00     0.099 C 
HETATM   24  O   UNK N   1     166.654 154.580 150.681  0.00  0.00    -0.278 OA
ENDBRANCH   1  17
TORSDOF 4
ENDMDL
MODEL 4
REMARK VINA RESULT:      -5.6      3.630      8.074
REMARK  4 active torsions:
REMARK  status: ('A' for Active; 'I' for Inactive)
REMARK    1  A    between atoms: C_7  and  C_8 
REMARK    2  A    between atoms: C_11  and  N_12 
REMARK    3  A    between atoms: N_12  and  C_13 
REMARK    4  A    between atoms: C_13  and  C_14 
ROOT
HETATM    1  C   UNK N   1     167.143 155.734 153.936  0.00  0.00     0.017 A 
HETATM    2  C   UNK N   1     167.529 154.780 154.885  0.00  0.00     0.018 A 
HETATM    3  C   UNK N   1     168.021 153.541 154.467  0.00  0.00     0.030 A 
HETATM    4  C   UNK N   1     168.129 153.246 153.096  0.00  0.00     0.028 A 
HETATM    5  C   UNK N   1     167.744 154.201 152.154  0.00  0.00     0.030 A 
HETATM    6  C   UNK N   1     167.255 155.439 152.572  0.00  0.00     0.018 A 
ENDROOT
BRANCH   4   7
HETATM    7  N   UNK N   1     168.598 151.984 152.649  0.00  0.00    -0.384 N 
HETATM    8  H   UNK N   1     168.284 151.640 151.781  0.00  0.00     0.160 HD
BRANCH   7   9
HETATM    9  C   UNK N   1     169.521 151.185 153.421  0.00  0.00     0.178 C 
BRANCH   9  10
HETATM   10  C   UNK N   1     168.829 150.033 154.093  0.00  0.00     0.047 A 
HETATM   11  C   UNK N   1     168.163 150.054 155.307  0.00  0.00     0.047 A 
HETATM   12  C   UNK N   1     167.735 148.744 155.488  0.00  0.00     0.109 A 
HETATM   13  N   UNK N   1     168.134 148.003 154.432  0.00  0.00    -0.310 N 
HETATM   14  N   UNK N   1     168.789 148.790 153.599  0.00  0.00    -0.299 N 
ATOM     15  HN  UNK N   1     167.959 147.008 154.301  1.00  0.00     0.186 HD
HETATM   16  C   UNK N   1     169.383 148.335 152.353  0.00  0.00     0.177 C 
ENDBRANCH   9  10
ENDBRANCH   7   9
ENDBRANCH   4   7
BRANCH   1  17
HETATM   17  C   UNK N   1     166.622 157.038 154.359  0.00  0.00     0.174 A 
HETATM   18  N   UNK N   1     165.752 157.777 153.642  0.00  0.00    -0.277 N 
HETATM   19  N   UNK N   1     165.524 158.877 154.342  0.00  0.00    -0.281 N 
ATOM     20  HN  UNK N   1     165.347 157.535 152.738  1.00  0.00     0.189 HD
HETATM   21  C   UNK N   1     166.262 158.778 155.462  0.00  0.00     0.136 A 
ATOM     22  HN  UNK N   1     164.910 159.649 154.081  1.00  0.00     0.189 HD
HETATM   23  C   UNK N   1     166.302 159.808 156.532  0.00  0.00     0.099 C 
HETATM   24  O   UNK N   1     166.935 157.654 155.474  0.00  0.00    -0.278 OA
ENDBRANCH   1  17
TORSDOF 4
ENDMDL
MODEL 5
REMARK VINA RESULT:      -5.5     13.994     16.346
REMARK  4 active torsions:
REMARK  status: ('A' for Active; 'I' for Inactive)
REMARK    1  A    between atoms: C_7  and  C_8 
REMARK    2  A    between atoms: C_11  and  N_12 
REMARK    3  A    between atoms: N_12  and  C_13 
REMARK    4  A    between atoms: C_13  and  C_14 
ROOT
HETATM    1  C   UNK N   1     157.987 146.977 157.748  0.00  0.00     0.017 A 
HETATM    2  C   UNK N   1     157.426 148.150 157.226  0.00  0.00     0.018 A 
HETATM    3  C   UNK N   1     157.101 148.223 155.870  0.00  0.00     0.030 A 
HETATM    4  C   UNK N   1     157.336 147.124 155.023  0.00  0.00     0.028 A 
HETATM    5  C   UNK N   1     157.892 145.958 155.548  0.00  0.00     0.030 A 
HETATM    6  C   UNK N   1     158.215 145.884 156.903  0.00  0.00     0.018 A 
ENDROOT
BRANCH   4   7
HETATM    7  N   UNK N   1     157.041 147.187 153.637  0.00  0.00    -0.384 N 
HETATM    8  H   UNK N   1     157.655 147.674 153.041  0.00  0.00     0.160 HD
BRANCH   7   9
HETATM    9  C   UNK N   1     155.871 146.560 153.067  0.00  0.00     0.178 C 
BRANCH   9  10
HETATM   10  C   UNK N   1     156.242 145.464 152.107  0.00  0.00     0.047 A 
HETATM   11  C   UNK N   1     157.128 144.424 152.331  0.00  0.00     0.047 A 
HETATM   12  C   UNK N   1     157.139 143.717 151.134  0.00  0.00     0.109 A 
HETATM   13  N   UNK N   1     156.302 144.319 150.262  0.00  0.00    -0.310 N 
HETATM   14  N   UNK N   1     155.767 145.368 150.859  0.00  0.00    -0.299 N 
ATOM     15  HN  UNK N   1     156.116 144.016 149.307  1.00  0.00     0.186 HD
HETATM   16  C   UNK N   1     154.825 146.271 150.220  0.00  0.00     0.177 C 
ENDBRANCH   9  10
ENDBRANCH   7   9
ENDBRANCH   4   7
BRANCH   1  17
HETATM   17  C   UNK N   1     158.335 146.885 159.169  0.00  0.00     0.174 A 
HETATM   18  N   UNK N   1     157.756 147.617 160.143  0.00  0.00    -0.277 N 
HETATM   19  N   UNK N   1     158.332 147.258 161.278  0.00  0.00    -0.281 N 
ATOM     20  HN  UNK N   1     157.017 148.310 160.025  1.00  0.00     0.189 HD
HETATM   21  C   UNK N   1     159.245 146.321 160.966  0.00  0.00     0.136 A 
ATOM     22  HN  UNK N   1     158.125 147.623 162.208  1.00  0.00     0.189 HD
HETATM   23  C   UNK N   1     160.125 145.646 161.955  0.00  0.00     0.099 C 
HETATM   24  O   UNK N   1     159.248 146.091 159.676  0.00  0.00    -0.278 OA
ENDBRANCH   1  17
TORSDOF 4
ENDMDL
MODEL 6
REMARK VINA RESULT:      -5.4      4.537      6.833
REMARK  4 active torsions:
REMARK  status: ('A' for Active; 'I' for Inactive)
REMARK    1  A    between atoms: C_7  and  C_8 
REMARK    2  A    between atoms: C_11  and  N_12 
REMARK    3  A    between atoms: N_12  and  C_13 
REMARK    4  A    between atoms: C_13  and  C_14 
ROOT
HETATM    1  C   UNK N   1     162.839 156.150 156.086  0.00  0.00     0.017 A 
HETATM    2  C   UNK N   1     163.607 154.997 155.885  0.00  0.00     0.018 A 
HETATM    3  C   UNK N   1     164.718 155.039 155.038  0.00  0.00     0.030 A 
HETATM    4  C   UNK N   1     165.068 156.234 154.384  0.00  0.00     0.028 A 
HETATM    5  C   UNK N   1     164.300 157.381 154.591  0.00  0.00     0.030 A 
HETATM    6  C   UNK N   1     163.193 157.340 155.438  0.00  0.00     0.018 A 
ENDROOT
BRANCH   4   7
HETATM    7  N   UNK N   1     166.174 156.292 153.498  0.00  0.00    -0.384 N 
HETATM    8  H   UNK N   1     166.117 155.819 152.636  0.00  0.00     0.160 HD
BRANCH   7   9
HETATM    9  C   UNK N   1     167.380 157.021 153.814  0.00  0.00     0.178 C 
BRANCH   9  10
HETATM   10  C   UNK N   1     168.066 156.457 155.027  0.00  0.00     0.047 A 
HETATM   11  C   UNK N   1     167.956 156.906 156.332  0.00  0.00     0.047 A 
HETATM   12  C   UNK N   1     168.803 156.074 157.055  0.00  0.00     0.109 A 
HETATM   13  N   UNK N   1     169.374 155.190 156.210  0.00  0.00    -0.310 N 
HETATM   14  N   UNK N   1     168.921 155.428 154.993  0.00  0.00    -0.299 N 
ATOM     15  HN  UNK N   1     170.040 154.462 156.468  1.00  0.00     0.186 HD
HETATM   16  C   UNK N   1     169.330 154.680 153.816  0.00  0.00     0.177 C 
ENDBRANCH   9  10
ENDBRANCH   7   9
ENDBRANCH   4   7
BRANCH   1  17
HETATM   17  C   UNK N   1     161.670 156.123 156.970  0.00  0.00     0.174 A 
HETATM   18  N   UNK N   1     161.603 155.422 158.120  0.00  0.00    -0.277 N 
HETATM   19  N   UNK N   1     160.401 155.643 158.628  0.00  0.00    -0.281 N 
ATOM     20  HN  UNK N   1     162.336 154.836 158.520  1.00  0.00     0.189 HD
HETATM   21  C   UNK N   1     159.770 156.471 157.776  0.00  0.00     0.136 A 
ATOM     22  HN  UNK N   1     160.027 155.260 159.497  1.00  0.00     0.189 HD
HETATM   23  C   UNK N   1     158.386 156.974 157.967  0.00  0.00     0.099 C 
HETATM   24  O   UNK N   1     160.545 156.765 156.760  0.00  0.00    -0.278 OA
ENDBRANCH   1  17
TORSDOF 4
ENDMDL
MODEL 7
REMARK VINA RESULT:      -5.4      7.907      9.217
REMARK  4 active torsions:
REMARK  status: ('A' for Active; 'I' for Inactive)
REMARK    1  A    between atoms: C_7  and  C_8 
REMARK    2  A    between atoms: C_11  and  N_12 
REMARK    3  A    between atoms: N_12  and  C_13 
REMARK    4  A    between atoms: C_13  and  C_14 
ROOT
HETATM    1  C   UNK N   1     168.653 150.572 150.474  0.00  0.00     0.017 A 
HETATM    2  C   UNK N   1     168.366 149.225 150.221  0.00  0.00     0.018 A 
HETATM    3  C   UNK N   1     168.742 148.246 151.144  0.00  0.00     0.030 A 
HETATM    4  C   UNK N   1     169.410 148.607 152.328  0.00  0.00     0.028 A 
HETATM    5  C   UNK N   1     169.692 149.950 152.577  0.00  0.00     0.030 A 
HETATM    6  C   UNK N   1     169.315 150.928 151.656  0.00  0.00     0.018 A 
ENDROOT
BRANCH   4   7
HETATM    7  N   UNK N   1     169.827 147.627 153.266  0.00  0.00    -0.384 N 
HETATM    8  H   UNK N   1     169.800 146.678 153.006  0.00  0.00     0.160 HD
BRANCH   7   9
HETATM    9  C   UNK N   1     170.293 147.973 154.589  0.00  0.00     0.178 C 
BRANCH   9  10
HETATM   10  C   UNK N   1     169.229 147.749 155.626  0.00  0.00     0.047 A 
HETATM   11  C   UNK N   1     168.047 148.454 155.775  0.00  0.00     0.047 A 
HETATM   12  C   UNK N   1     167.440 147.881 156.886  0.00  0.00     0.109 A 
HETATM   13  N   UNK N   1     168.231 146.894 157.356  0.00  0.00    -0.310 N 
HETATM   14  N   UNK N   1     169.304 146.822 156.589  0.00  0.00    -0.299 N 
ATOM     15  HN  UNK N   1     168.035 146.305 158.165  1.00  0.00     0.186 HD
HETATM   16  C   UNK N   1     170.391 145.882 156.803  0.00  0.00     0.177 C 
ENDBRANCH   9  10
ENDBRANCH   7   9
ENDBRANCH   4   7
BRANCH   1  17
HETATM   17  C   UNK N   1     168.267 151.610 149.515  0.00  0.00     0.174 A 
HETATM   18  N   UNK N   1     169.024 151.998 148.469  0.00  0.00    -0.277 N 
HETATM   19  N   UNK N   1     168.348 152.948 147.843  0.00  0.00    -0.281 N 
ATOM     20  HN  UNK N   1     169.939 151.630 148.210  1.00  0.00     0.189 HD
HETATM   21  C   UNK N   1     167.200 153.113 148.525  0.00  0.00     0.136 A 
ATOM     22  HN  UNK N   1     168.641 153.456 147.009  1.00  0.00     0.189 HD
HETATM   23  C   UNK N   1     166.142 154.091 148.160  0.00  0.00     0.099 C 
HETATM   24  O   UNK N   1     167.148 152.295 149.548  0.00  0.00    -0.278 OA
ENDBRANCH   1  17
TORSDOF 4
ENDMDL
MODEL 8
REMARK VINA RESULT:      -5.4     14.130     16.289
REMARK  4 active torsions:
REMARK  status: ('A' for Active; 'I' for Inactive)
REMARK    1  A    between atoms: C_7  and  C_8 
REMARK    2  A    between atoms: C_11  and  N_12 
REMARK    3  A    between atoms: N_12  and  C_13 
REMARK    4  A    between atoms: C_13  and  C_14 
ROOT
HETATM    1  C   UNK N   1     158.003 146.947 157.788  0.00  0.00     0.017 A 
HETATM    2  C   UNK N   1     158.262 145.883 156.915  0.00  0.00     0.018 A 
HETATM    3  C   UNK N   1     157.952 146.003 155.558  0.00  0.00     0.030 A 
HETATM    4  C   UNK N   1     157.377 147.188 155.063  0.00  0.00     0.028 A 
HETATM    5  C   UNK N   1     157.123 148.246 155.937  0.00  0.00     0.030 A 
HETATM    6  C   UNK N   1     157.435 148.127 157.291  0.00  0.00     0.018 A 
ENDROOT
BRANCH   4   7
HETATM    7  N   UNK N   1     157.027 147.321 153.695  0.00  0.00    -0.384 N 
HETATM    8  H   UNK N   1     157.393 148.078 153.182  0.00  0.00     0.160 HD
BRANCH   7   9
HETATM    9  C   UNK N   1     156.153 146.385 153.026  0.00  0.00     0.178 C 
BRANCH   9  10
HETATM   10  C   UNK N   1     154.873 146.184 153.787  0.00  0.00     0.047 A 
HETATM   11  C   UNK N   1     153.906 147.136 154.059  0.00  0.00     0.047 A 
HETATM   12  C   UNK N   1     152.952 146.456 154.808  0.00  0.00     0.109 A 
HETATM   13  N   UNK N   1     153.348 145.175 154.960  0.00  0.00    -0.310 N 
HETATM   14  N   UNK N   1     154.504 145.022 154.340  0.00  0.00    -0.299 N 
ATOM     15  HN  UNK N   1     152.842 144.450 155.467  1.00  0.00     0.186 HD
HETATM   16  C   UNK N   1     155.245 143.773 154.304  0.00  0.00     0.177 C 
ENDBRANCH   9  10
ENDBRANCH   7   9
ENDBRANCH   4   7
BRANCH   1  17
HETATM   17  C   UNK N   1     158.321 146.836 159.214  0.00  0.00     0.174 A 
HETATM   18  N   UNK N   1     157.708 147.541 160.187  0.00  0.00    -0.277 N 
HETATM   19  N   UNK N   1     158.265 147.173 161.329  0.00  0.00    -0.281 N 
ATOM     20  HN  UNK N   1     156.960 148.223 160.065  1.00  0.00     0.189 HD
HETATM   21  C   UNK N   1     159.201 146.256 161.022  0.00  0.00     0.136 A 
ATOM     22  HN  UNK N   1     158.031 147.517 162.260  1.00  0.00     0.189 HD
HETATM   23  C   UNK N   1     160.070 145.579 162.019  0.00  0.00     0.099 C 
HETATM   24  O   UNK N   1     159.237 146.049 159.728  0.00  0.00    -0.278 OA
ENDBRANCH   1  17
TORSDOF 4
ENDMDL
MODEL 9
REMARK VINA RESULT:      -5.3      3.823      5.182
REMARK  4 active torsions:
REMARK  status: ('A' for Active; 'I' for Inactive)
REMARK    1  A    between atoms: C_7  and  C_8 
REMARK    2  A    between atoms: C_11  and  N_12 
REMARK    3  A    between atoms: N_12  and  C_13 
REMARK    4  A    between atoms: C_13  and  C_14 
ROOT
HETATM    1  C   UNK N   1     168.226 152.346 154.765  0.00  0.00     0.017 A 
HETATM    2  C   UNK N   1     167.908 153.155 155.862  0.00  0.00     0.018 A 
HETATM    3  C   UNK N   1     168.014 154.544 155.758  0.00  0.00     0.030 A 
HETATM    4  C   UNK N   1     168.442 155.135 154.555  0.00  0.00     0.028 A 
HETATM    5  C   UNK N   1     168.756 154.324 153.464  0.00  0.00     0.030 A 
HETATM    6  C   UNK N   1     168.648 152.937 153.567  0.00  0.00     0.018 A 
ENDROOT
BRANCH   4   7
HETATM    7  N   UNK N   1     168.586 156.541 154.436  0.00  0.00    -0.384 N 
HETATM    8  H   UNK N   1     169.230 157.005 155.019  0.00  0.00     0.160 HD
BRANCH   7   9
HETATM    9  C   UNK N   1     167.820 157.318 153.488  0.00  0.00     0.178 C 
BRANCH   9  10
HETATM   10  C   UNK N   1     166.344 157.211 153.748  0.00  0.00     0.047 A 
HETATM   11  C   UNK N   1     165.445 156.368 153.117  0.00  0.00     0.047 A 
HETATM   12  C   UNK N   1     164.219 156.678 153.693  0.00  0.00     0.109 A 
HETATM   13  N   UNK N   1     164.400 157.651 154.611  0.00  0.00    -0.310 N 
HETATM   14  N   UNK N   1     165.683 157.962 154.637  0.00  0.00    -0.299 N 
ATOM     15  HN  UNK N   1     163.671 158.073 155.186  1.00  0.00     0.186 HD
HETATM   16  C   UNK N   1     166.251 158.987 155.497  0.00  0.00     0.177 C 
ENDBRANCH   9  10
ENDBRANCH   7   9
ENDBRANCH   4   7
BRANCH   1  17
HETATM   17  C   UNK N   1     168.121 150.886 154.859  0.00  0.00     0.174 A 
HETATM   18  N   UNK N   1     168.195 150.050 153.804  0.00  0.00    -0.277 N 
HETATM   19  N   UNK N   1     168.056 148.824 154.283  0.00  0.00    -0.281 N 
ATOM     20  HN  UNK N   1     168.333 150.311 152.828  1.00  0.00     0.189 HD
HETATM   21  C   UNK N   1     167.900 148.948 155.614  0.00  0.00     0.136 A 
ATOM     22  HN  UNK N   1     168.064 147.956 153.748  1.00  0.00     0.189 HD
HETATM   23  C   UNK N   1     167.708 147.806 156.544  0.00  0.00     0.099 C 
HETATM   24  O   UNK N   1     167.940 150.209 155.968  0.00  0.00    -0.278 OA
ENDBRANCH   1  17
TORSDOF 4
ENDMDL
