MODEL 1
REMARK VINA RESULT:      -5.5      0.000      0.000
REMARK  3 active torsions:
REMARK  status: ('A' for Active; 'I' for Inactive)
REMARK    1  A    between atoms: C_6  and  C_7 
REMARK       I    between atoms: C_7  and  N_9 
REMARK    2  A    between atoms: C_13  and  C_15 
REMARK    3  A    between atoms: C_15  and  O_16 
ROOT
HETATM    1  C   UNK N   1     167.411 153.607 155.318  0.00  0.00     0.254 C 
HETATM    2  O   UNK N   1     166.230 153.301 155.363  0.00  0.00    -0.267 OA
HETATM    3  N   UNK N   1     167.772 154.925 155.368  0.00  0.00    -0.347 N 
HETATM    4  C   UNK N   1     169.123 155.358 155.086  0.00  0.00     0.126 C 
HETATM    5  C   UNK N   1     169.115 156.184 153.797  0.00  0.00     0.021 C 
HETATM    6  C   UNK N   1     168.075 157.310 153.883  0.00  0.00     0.014 C 
HETATM    7  C   UNK N   1     166.673 156.782 154.236  0.00  0.00    -0.006 C 
HETATM    8  C   UNK N   1     166.122 155.919 153.105  0.00  0.00     0.019 C 
HETATM    9  C   UNK N   1     166.757 155.950 155.517  0.00  0.00     0.137 C 
ENDROOT
BRANCH   1  10
HETATM   10  C   UNK N   1     168.411 152.528 155.107  0.00  0.00     0.038 A 
HETATM   11  C   UNK N   1     168.947 151.902 156.240  0.00  0.00     0.017 A 
HETATM   12  C   UNK N   1     169.886 150.880 156.111  0.00  0.00     0.002 A 
HETATM   13  C   UNK N   1     170.334 150.501 154.848  0.00  0.00     0.007 A 
HETATM   14  C   UNK N   1     169.844 151.134 153.704  0.00  0.00    -0.055 A 
HETATM   15  C   UNK N   1     170.391 150.733 152.376  0.00  0.00     0.049 C 
HETATM   16  C   UNK N   1     168.867 152.147 153.821  0.00  0.00    -0.040 A 
HETATM   17  C   UNK N   1     168.378 152.855 152.594  0.00  0.00     0.050 C 
ENDBRANCH   1  10
BRANCH   7  18
HETATM   18  C   UNK N   1     165.722 157.946 154.485  0.00  0.00     0.175 C 
BRANCH  18  19
HETATM   19  O   UNK N   1     165.800 158.894 153.461  0.00  0.00    -0.400 OA
HETATM   20  H   UNK N   1     164.913 159.239 153.271  0.00  0.00     0.209 HD
ENDBRANCH  18  19
ENDBRANCH   7  18
TORSDOF 3
ENDMDL
MODEL 2
REMARK VINA RESULT:      -5.2      4.656      6.602
REMARK  3 active torsions:
REMARK  status: ('A' for Active; 'I' for Inactive)
REMARK    1  A    between atoms: C_6  and  C_7 
REMARK       I    between atoms: C_7  and  N_9 
REMARK    2  A    between atoms: C_13  and  C_15 
REMARK    3  A    between atoms: C_15  and  O_16 
ROOT
HETATM    1  C   UNK N   1     166.266 156.096 156.697  0.00  0.00     0.254 C 
HETATM    2  O   UNK N   1     166.812 155.563 155.743  0.00  0.00    -0.267 OA
HETATM    3  N   UNK N   1     165.019 155.688 157.079  0.00  0.00    -0.347 N 
HETATM    4  C   UNK N   1     164.234 156.429 158.042  0.00  0.00     0.126 C 
HETATM    5  C   UNK N   1     163.008 157.010 157.333  0.00  0.00     0.021 C 
HETATM    6  C   UNK N   1     162.246 155.910 156.581  0.00  0.00     0.014 C 
HETATM    7  C   UNK N   1     163.154 155.130 155.614  0.00  0.00    -0.006 C 
HETATM    8  C   UNK N   1     163.628 156.030 154.476  0.00  0.00     0.019 C 
HETATM    9  C   UNK N   1     164.366 154.597 156.380  0.00  0.00     0.137 C 
ENDROOT
BRANCH   1  10
HETATM   10  C   UNK N   1     166.948 157.245 157.346  0.00  0.00     0.038 A 
HETATM   11  C   UNK N   1     167.778 156.979 158.443  0.00  0.00     0.017 A 
HETATM   12  C   UNK N   1     168.450 158.013 159.094  0.00  0.00     0.002 A 
HETATM   13  C   UNK N   1     168.265 159.331 158.685  0.00  0.00     0.007 A 
HETATM   14  C   UNK N   1     167.414 159.627 157.618  0.00  0.00    -0.055 A 
HETATM   15  C   UNK N   1     167.204 161.057 157.247  0.00  0.00     0.049 C 
HETATM   16  C   UNK N   1     166.755 158.585 156.929  0.00  0.00    -0.040 A 
HETATM   17  C   UNK N   1     165.807 158.912 155.815  0.00  0.00     0.050 C 
ENDBRANCH   1  10
BRANCH   7  18
HETATM   18  C   UNK N   1     162.400 153.941 155.029  0.00  0.00     0.175 C 
BRANCH  18  19
HETATM   19  O   UNK N   1     161.044 153.982 155.371  0.00  0.00    -0.400 OA
HETATM   20  H   UNK N   1     160.949 153.872 156.330  0.00  0.00     0.209 HD
ENDBRANCH  18  19
ENDBRANCH   7  18
TORSDOF 3
ENDMDL
MODEL 3
REMARK VINA RESULT:      -5.2     11.957     13.306
REMARK  3 active torsions:
REMARK  status: ('A' for Active; 'I' for Inactive)
REMARK    1  A    between atoms: C_6  and  C_7 
REMARK       I    between atoms: C_7  and  N_9 
REMARK    2  A    between atoms: C_13  and  C_15 
REMARK    3  A    between atoms: C_15  and  O_16 
ROOT
HETATM    1  C   UNK N   1     157.146 157.850 156.558  0.00  0.00     0.254 C 
HETATM    2  O   UNK N   1     158.269 157.449 156.822  0.00  0.00    -0.267 OA
HETATM    3  N   UNK N   1     156.946 159.175 156.288  0.00  0.00    -0.347 N 
HETATM    4  C   UNK N   1     155.620 159.746 156.200  0.00  0.00     0.126 C 
HETATM    5  C   UNK N   1     155.429 160.725 157.362  0.00  0.00     0.021 C 
HETATM    6  C   UNK N   1     156.575 161.745 157.403  0.00  0.00     0.014 C 
HETATM    7  C   UNK N   1     157.956 161.068 157.443  0.00  0.00    -0.006 C 
HETATM    8  C   UNK N   1     158.148 160.313 158.755  0.00  0.00     0.019 C 
HETATM    9  C   UNK N   1     158.072 160.090 156.272  0.00  0.00     0.137 C 
ENDROOT
BRANCH   1  10
HETATM   10  C   UNK N   1     156.016 156.888 156.643  0.00  0.00     0.038 A 
HETATM   11  C   UNK N   1     155.559 156.311 155.451  0.00  0.00     0.017 A 
HETATM   12  C   UNK N   1     154.505 155.398 155.461  0.00  0.00     0.002 A 
HETATM   13  C   UNK N   1     153.866 155.085 156.659  0.00  0.00     0.007 A 
HETATM   14  C   UNK N   1     154.278 155.676 157.856  0.00  0.00    -0.055 A 
HETATM   15  C   UNK N   1     153.531 155.353 159.106  0.00  0.00     0.049 C 
HETATM   16  C   UNK N   1     155.366 156.575 157.862  0.00  0.00    -0.040 A 
HETATM   17  C   UNK N   1     155.774 157.242 159.141  0.00  0.00     0.050 C 
ENDBRANCH   1  10
BRANCH   7  18
HETATM   18  C   UNK N   1     159.057 162.113 157.301  0.00  0.00     0.175 C 
BRANCH  18  19
HETATM   19  O   UNK N   1     159.751 161.960 156.097  0.00  0.00    -0.400 OA
HETATM   20  H   UNK N   1     160.698 161.856 156.281  0.00  0.00     0.209 HD
ENDBRANCH  18  19
ENDBRANCH   7  18
TORSDOF 3
ENDMDL
MODEL 4
REMARK VINA RESULT:      -5.2      2.639      6.623
REMARK  3 active torsions:
REMARK  status: ('A' for Active; 'I' for Inactive)
REMARK    1  A    between atoms: C_6  and  C_7 
REMARK       I    between atoms: C_7  and  N_9 
REMARK    2  A    between atoms: C_13  and  C_15 
REMARK    3  A    between atoms: C_15  and  O_16 
ROOT
HETATM    1  C   UNK N   1     166.310 156.650 156.193  0.00  0.00     0.254 C 
HETATM    2  O   UNK N   1     165.627 155.941 156.914  0.00  0.00    -0.267 OA
HETATM    3  N   UNK N   1     166.953 156.104 155.117  0.00  0.00    -0.347 N 
HETATM    4  C   UNK N   1     167.952 156.837 154.371  0.00  0.00     0.126 C 
HETATM    5  C   UNK N   1     169.311 156.162 154.577  0.00  0.00     0.021 C 
HETATM    6  C   UNK N   1     169.226 154.664 154.252  0.00  0.00     0.014 C 
HETATM    7  C   UNK N   1     168.109 153.960 155.043  0.00  0.00    -0.006 C 
HETATM    8  C   UNK N   1     168.429 153.950 156.535  0.00  0.00     0.019 C 
HETATM    9  C   UNK N   1     166.787 154.696 154.812  0.00  0.00     0.137 C 
ENDROOT
BRANCH   1  10
HETATM   10  C   UNK N   1     166.496 158.074 156.578  0.00  0.00     0.038 A 
HETATM   11  C   UNK N   1     165.692 159.033 155.947  0.00  0.00     0.017 A 
HETATM   12  C   UNK N   1     165.815 160.384 156.265  0.00  0.00     0.002 A 
HETATM   13  C   UNK N   1     166.774 160.799 157.186  0.00  0.00     0.007 A 
HETATM   14  C   UNK N   1     167.613 159.868 157.801  0.00  0.00    -0.055 A 
HETATM   15  C   UNK N   1     168.662 160.362 158.741  0.00  0.00     0.049 C 
HETATM   16  C   UNK N   1     167.475 158.493 157.512  0.00  0.00    -0.040 A 
HETATM   17  C   UNK N   1     168.409 157.502 158.139  0.00  0.00     0.050 C 
ENDBRANCH   1  10
BRANCH   7  18
HETATM   18  C   UNK N   1     167.946 152.525 154.557  0.00  0.00     0.175 C 
BRANCH  18  19
HETATM   19  O   UNK N   1     167.279 151.741 155.503  0.00  0.00    -0.400 OA
HETATM   20  H   UNK N   1     167.185 150.837 155.165  0.00  0.00     0.209 HD
ENDBRANCH  18  19
ENDBRANCH   7  18
TORSDOF 3
ENDMDL
MODEL 5
REMARK VINA RESULT:      -5.2      3.611      5.608
REMARK  3 active torsions:
REMARK  status: ('A' for Active; 'I' for Inactive)
REMARK    1  A    between atoms: C_6  and  C_7 
REMARK       I    between atoms: C_7  and  N_9 
REMARK    2  A    between atoms: C_13  and  C_15 
REMARK    3  A    between atoms: C_15  and  O_16 
ROOT
HETATM    1  C   UNK N   1     165.279 157.341 156.089  0.00  0.00     0.254 C 
HETATM    2  O   UNK N   1     165.248 158.082 157.059  0.00  0.00    -0.267 OA
HETATM    3  N   UNK N   1     164.115 156.820 155.596  0.00  0.00    -0.347 N 
HETATM    4  C   UNK N   1     164.108 155.764 154.609  0.00  0.00     0.126 C 
HETATM    5  C   UNK N   1     163.526 154.499 155.246  0.00  0.00     0.021 C 
HETATM    6  C   UNK N   1     162.165 154.797 155.891  0.00  0.00     0.014 C 
HETATM    7  C   UNK N   1     162.237 155.964 156.891  0.00  0.00    -0.006 C 
HETATM    8  C   UNK N   1     163.090 155.588 158.098  0.00  0.00     0.019 C 
HETATM    9  C   UNK N   1     162.846 157.184 156.197  0.00  0.00     0.137 C 
ENDROOT
BRANCH   1  10
HETATM   10  C   UNK N   1     166.605 156.951 155.543  0.00  0.00     0.038 A 
HETATM   11  C   UNK N   1     167.385 156.060 156.292  0.00  0.00     0.017 A 
HETATM   12  C   UNK N   1     168.637 155.652 155.834  0.00  0.00     0.002 A 
HETATM   13  C   UNK N   1     169.144 156.165 154.643  0.00  0.00     0.007 A 
HETATM   14  C   UNK N   1     168.404 157.084 153.896  0.00  0.00    -0.055 A 
HETATM   15  C   UNK N   1     169.008 157.648 152.655  0.00  0.00     0.049 C 
HETATM   16  C   UNK N   1     167.120 157.478 154.333  0.00  0.00    -0.040 A 
HETATM   17  C   UNK N   1     166.349 158.499 153.553  0.00  0.00     0.050 C 
ENDBRANCH   1  10
BRANCH   7  18
HETATM   18  C   UNK N   1     160.837 156.336 157.365  0.00  0.00     0.175 C 
BRANCH  18  19
HETATM   19  O   UNK N   1     159.867 155.520 156.774  0.00  0.00    -0.400 OA
HETATM   20  H   UNK N   1     159.049 156.026 156.654  0.00  0.00     0.209 HD
ENDBRANCH  18  19
ENDBRANCH   7  18
TORSDOF 3
ENDMDL
MODEL 6
REMARK VINA RESULT:      -5.1      3.669      6.011
REMARK  3 active torsions:
REMARK  status: ('A' for Active; 'I' for Inactive)
REMARK    1  A    between atoms: C_6  and  C_7 
REMARK       I    between atoms: C_7  and  N_9 
REMARK    2  A    between atoms: C_13  and  C_15 
REMARK    3  A    between atoms: C_15  and  O_16 
ROOT
HETATM    1  C   UNK N   1     164.979 158.124 155.521  0.00  0.00     0.254 C 
HETATM    2  O   UNK N   1     164.947 159.188 156.119  0.00  0.00    -0.267 OA
HETATM    3  N   UNK N   1     163.823 157.419 155.327  0.00  0.00    -0.347 N 
HETATM    4  C   UNK N   1     163.830 156.058 154.839  0.00  0.00     0.126 C 
HETATM    5  C   UNK N   1     163.323 155.135 155.950  0.00  0.00     0.021 C 
HETATM    6  C   UNK N   1     161.972 155.627 156.486  0.00  0.00     0.014 C 
HETATM    7  C   UNK N   1     162.025 157.096 156.939  0.00  0.00    -0.006 C 
HETATM    8  C   UNK N   1     162.931 157.252 158.157  0.00  0.00     0.019 C 
HETATM    9  C   UNK N   1     162.560 157.958 155.793  0.00  0.00     0.137 C 
ENDROOT
BRANCH   1  10
HETATM   10  C   UNK N   1     166.303 157.585 155.113  0.00  0.00     0.038 A 
HETATM   11  C   UNK N   1     166.735 157.833 153.803  0.00  0.00     0.017 A 
HETATM   12  C   UNK N   1     167.968 157.360 153.359  0.00  0.00     0.002 A 
HETATM   13  C   UNK N   1     168.766 156.593 154.205  0.00  0.00     0.007 A 
HETATM   14  C   UNK N   1     168.342 156.299 155.503  0.00  0.00    -0.055 A 
HETATM   15  C   UNK N   1     169.203 155.430 156.356  0.00  0.00     0.049 C 
HETATM   16  C   UNK N   1     167.110 156.802 155.975  0.00  0.00    -0.040 A 
HETATM   17  C   UNK N   1     166.638 156.446 157.352  0.00  0.00     0.050 C 
ENDBRANCH   1  10
BRANCH   7  18
HETATM   18  C   UNK N   1     160.626 157.588 157.292  0.00  0.00     0.175 C 
BRANCH  18  19
HETATM   19  O   UNK N   1     159.666 156.597 157.062  0.00  0.00    -0.400 OA
HETATM   20  H   UNK N   1     159.468 156.552 156.114  0.00  0.00     0.209 HD
ENDBRANCH  18  19
ENDBRANCH   7  18
TORSDOF 3
ENDMDL
MODEL 7
REMARK VINA RESULT:      -5.1      3.431      5.494
REMARK  3 active torsions:
REMARK  status: ('A' for Active; 'I' for Inactive)
REMARK    1  A    between atoms: C_6  and  C_7 
REMARK       I    between atoms: C_7  and  N_9 
REMARK    2  A    between atoms: C_13  and  C_15 
REMARK    3  A    between atoms: C_15  and  O_16 
ROOT
HETATM    1  C   UNK N   1     165.837 156.611 156.542  0.00  0.00     0.254 C 
HETATM    2  O   UNK N   1     166.409 156.569 157.620  0.00  0.00    -0.267 OA
HETATM    3  N   UNK N   1     164.475 156.731 156.501  0.00  0.00    -0.347 N 
HETATM    4  C   UNK N   1     163.728 156.552 155.276  0.00  0.00     0.126 C 
HETATM    5  C   UNK N   1     162.864 155.295 155.406  0.00  0.00     0.021 C 
HETATM    6  C   UNK N   1     162.014 155.355 156.684  0.00  0.00     0.014 C 
HETATM    7  C   UNK N   1     162.868 155.598 157.940  0.00  0.00    -0.006 C 
HETATM    8  C   UNK N   1     163.778 154.405 158.213  0.00  0.00     0.019 C 
HETATM    9  C   UNK N   1     163.721 156.852 157.734  0.00  0.00     0.137 C 
ENDROOT
BRANCH   1  10
HETATM   10  C   UNK N   1     166.644 156.426 155.308  0.00  0.00     0.038 A 
HETATM   11  C   UNK N   1     167.090 157.574 154.640  0.00  0.00     0.017 A 
HETATM   12  C   UNK N   1     167.855 157.470 153.479  0.00  0.00     0.002 A 
HETATM   13  C   UNK N   1     168.146 156.216 152.947  0.00  0.00     0.007 A 
HETATM   14  C   UNK N   1     167.682 155.057 153.573  0.00  0.00    -0.055 A 
HETATM   15  C   UNK N   1     167.972 153.738 152.938  0.00  0.00     0.049 C 
HETATM   16  C   UNK N   1     166.936 155.149 154.767  0.00  0.00    -0.040 A 
HETATM   17  C   UNK N   1     166.400 153.905 155.409  0.00  0.00     0.050 C 
ENDBRANCH   1  10
BRANCH   7  18
HETATM   18  C   UNK N   1     161.969 155.828 159.150  0.00  0.00     0.175 C 
BRANCH  18  19
HETATM   19  O   UNK N   1     161.385 154.633 159.582  0.00  0.00    -0.400 OA
HETATM   20  H   UNK N   1     160.447 154.624 159.333  0.00  0.00     0.209 HD
ENDBRANCH  18  19
ENDBRANCH   7  18
TORSDOF 3
ENDMDL
MODEL 8
REMARK VINA RESULT:      -5.1      3.137      4.931
REMARK  3 active torsions:
REMARK  status: ('A' for Active; 'I' for Inactive)
REMARK    1  A    between atoms: C_6  and  C_7 
REMARK       I    between atoms: C_7  and  N_9 
REMARK    2  A    between atoms: C_13  and  C_15 
REMARK    3  A    between atoms: C_15  and  O_16 
ROOT
HETATM    1  C   UNK N   1     165.461 156.653 154.807  0.00  0.00     0.254 C 
HETATM    2  O   UNK N   1     165.989 157.614 155.345  0.00  0.00    -0.267 OA
HETATM    3  N   UNK N   1     164.102 156.515 154.849  0.00  0.00    -0.347 N 
HETATM    4  C   UNK N   1     163.444 155.294 154.440  0.00  0.00     0.126 C 
HETATM    5  C   UNK N   1     162.796 154.649 155.668  0.00  0.00     0.021 C 
HETATM    6  C   UNK N   1     161.898 155.659 156.397  0.00  0.00     0.014 C 
HETATM    7  C   UNK N   1     162.649 156.954 156.755  0.00  0.00    -0.006 C 
HETATM    8  C   UNK N   1     163.733 156.678 157.793  0.00  0.00     0.019 C 
HETATM    9  C   UNK N   1     163.289 157.531 155.492  0.00  0.00     0.137 C 
ENDROOT
BRANCH   1  10
HETATM   10  C   UNK N   1     166.337 155.610 154.212  0.00  0.00     0.038 A 
HETATM   11  C   UNK N   1     166.639 155.711 152.848  0.00  0.00     0.017 A 
HETATM   12  C   UNK N   1     167.458 154.768 152.229  0.00  0.00     0.002 A 
HETATM   13  C   UNK N   1     167.948 153.686 152.957  0.00  0.00     0.007 A 
HETATM   14  C   UNK N   1     167.631 153.541 154.309  0.00  0.00    -0.055 A 
HETATM   15  C   UNK N   1     168.133 152.339 155.036  0.00  0.00     0.049 C 
HETATM   16  C   UNK N   1     166.830 154.509 154.954  0.00  0.00    -0.040 A 
HETATM   17  C   UNK N   1     166.454 154.325 156.393  0.00  0.00     0.050 C 
ENDBRANCH   1  10
BRANCH   7  18
HETATM   18  C   UNK N   1     161.677 157.988 157.312  0.00  0.00     0.175 C 
BRANCH  18  19
HETATM   19  O   UNK N   1     160.444 157.931 156.655  0.00  0.00    -0.400 OA
HETATM   20  H   UNK N   1     159.734 158.138 157.282  0.00  0.00     0.209 HD
ENDBRANCH  18  19
ENDBRANCH   7  18
TORSDOF 3
ENDMDL
MODEL 9
REMARK VINA RESULT:      -5.1     13.164     14.874
REMARK  3 active torsions:
REMARK  status: ('A' for Active; 'I' for Inactive)
REMARK    1  A    between atoms: C_6  and  C_7 
REMARK       I    between atoms: C_7  and  N_9 
REMARK    2  A    between atoms: C_13  and  C_15 
REMARK    3  A    between atoms: C_15  and  O_16 
ROOT
HETATM    1  C   UNK N   1     158.243 146.809 158.944  0.00  0.00     0.254 C 
HETATM    2  O   UNK N   1     159.383 146.987 159.344  0.00  0.00    -0.267 OA
HETATM    3  N   UNK N   1     157.303 146.281 159.785  0.00  0.00    -0.347 N 
HETATM    4  C   UNK N   1     156.014 145.835 159.306  0.00  0.00     0.126 C 
HETATM    5  C   UNK N   1     155.928 144.315 159.470  0.00  0.00     0.021 C 
HETATM    6  C   UNK N   1     156.263 143.908 160.912  0.00  0.00     0.014 C 
HETATM    7  C   UNK N   1     157.625 144.460 161.371  0.00  0.00    -0.006 C 
HETATM    8  C   UNK N   1     158.761 143.817 160.580  0.00  0.00     0.019 C 
HETATM    9  C   UNK N   1     157.651 145.975 161.159  0.00  0.00     0.137 C 
ENDROOT
BRANCH   1  10
HETATM   10  C   UNK N   1     157.949 147.084 157.513  0.00  0.00     0.038 A 
HETATM   11  C   UNK N   1     157.354 148.312 157.192  0.00  0.00     0.017 A 
HETATM   12  C   UNK N   1     157.056 148.633 155.869  0.00  0.00     0.002 A 
HETATM   13  C   UNK N   1     157.307 147.712 154.855  0.00  0.00     0.007 A 
HETATM   14  C   UNK N   1     157.864 146.467 155.152  0.00  0.00    -0.055 A 
HETATM   15  C   UNK N   1     158.066 145.491 154.042  0.00  0.00     0.049 C 
HETATM   16  C   UNK N   1     158.202 146.144 156.485  0.00  0.00    -0.040 A 
HETATM   17  C   UNK N   1     158.756 144.789 156.805  0.00  0.00     0.050 C 
ENDBRANCH   1  10
BRANCH   7  18
HETATM   18  C   UNK N   1     157.830 144.182 162.856  0.00  0.00     0.175 C 
BRANCH  18  19
HETATM   19  O   UNK N   1     157.444 145.277 163.635  0.00  0.00    -0.400 OA
HETATM   20  H   UNK N   1     158.170 145.521 164.230  0.00  0.00     0.209 HD
ENDBRANCH  18  19
ENDBRANCH   7  18
TORSDOF 3
ENDMDL
