MODEL 1
REMARK VINA RESULT:      -6.8      0.000      0.000
REMARK  4 active torsions:
REMARK  status: ('A' for Active; 'I' for Inactive)
REMARK    1  A    between atoms: C_3  and  C_2 
REMARK       I    between atoms: N_11  and  C_12 
REMARK    2  A    between atoms: C_12  and  C_14 
REMARK    3  A    between atoms: C_14  and  N_15 
REMARK    4  A    between atoms: C_19  and  C_21 
ROOT
HETATM    1  N   UNK N   1     168.625 153.212 155.122  0.00  0.00    -0.259 N 
HETATM    2  C   UNK N   1     169.517 153.752 154.289  0.00  0.00     0.326 A 
HETATM    3  O   UNK N   1     169.740 154.950 154.211  0.00  0.00    -0.247 OA
HETATM    4  N   UNK N   1     170.180 152.828 153.564  0.00  0.00    -0.321 N 
HETATM    5  C   UNK N   1     169.712 151.496 153.937  0.00  0.00     0.140 A 
HETATM    6  C   UNK N   1     170.834 150.757 154.663  0.00  0.00     0.054 C 
HETATM    7  C   UNK N   1     168.653 151.880 154.951  0.00  0.00     0.261 A 
HETATM    8  O   UNK N   1     167.952 151.100 155.579  0.00  0.00    -0.270 OA
HETATM    9  H   UNK N   1     170.871 153.021 152.891  0.00  0.00     0.165 HD
ENDROOT
BRANCH   1  10
HETATM   10  C   UNK N   1     167.834 153.943 156.094  0.00  0.00     0.239 C 
BRANCH  10  11
HETATM   11  C   UNK N   1     166.547 154.454 155.469  0.00  0.00     0.239 C 
HETATM   12  N   UNK N   1     166.321 155.790 155.306  0.00  0.00    -0.339 N 
HETATM   13  C   UNK N   1     167.279 156.774 155.770  0.00  0.00     0.147 C 
HETATM   14  C   UNK N   1     165.057 156.253 154.748  0.00  0.00     0.137 C 
HETATM   15  C   UNK N   1     166.645 157.644 156.873  0.00  0.00     0.148 C 
HETATM   16  N   UNK N   1     165.219 157.872 156.625  0.00  0.00    -0.357 N 
HETATM   17  C   UNK N   1     164.422 158.725 157.287  0.00  0.00     0.091 A 
HETATM   18  C   UNK N   1     164.483 157.273 155.677  0.00  0.00     0.034 A 
HETATM   19  C   UNK N   1     163.146 158.671 156.737  0.00  0.00     0.019 A 
HETATM   20  C   UNK N   1     163.189 157.744 155.701  0.00  0.00     0.028 A 
HETATM   21  O   UNK N   1     165.691 153.650 155.120  0.00  0.00    -0.271 OA
BRANCH  14  22
HETATM   22  C   UNK N   1     165.248 156.886 153.375  0.00  0.00     0.027 C 
HETATM   23  C   UNK N   1     164.250 156.329 152.378  0.00  0.00     0.007 C 
ENDBRANCH  14  22
ENDBRANCH  10  11
ENDBRANCH   1  10
BRANCH   5  24
HETATM   24  C   UNK N   1     169.201 150.730 152.728  0.00  0.00    -0.021 A 
HETATM   25  C   UNK N   1     169.004 151.377 151.497  0.00  0.00     0.013 A 
HETATM   26  C   UNK N   1     168.566 150.652 150.379  0.00  0.00     0.043 A 
HETATM   27  C   UNK N   1     168.325 149.278 150.483  0.00  0.00     0.116 A 
HETATM   28  F   UNK N   1     167.909 148.575 149.402  0.00  0.00    -0.206 F 
HETATM   29  C   UNK N   1     168.515 148.628 151.701  0.00  0.00     0.043 A 
HETATM   30  C   UNK N   1     168.950 149.347 152.814  0.00  0.00     0.013 A 
ENDBRANCH   5  24
TORSDOF 4
ENDMDL
MODEL 2
REMARK VINA RESULT:      -6.8      3.280      8.366
REMARK  4 active torsions:
REMARK  status: ('A' for Active; 'I' for Inactive)
REMARK    1  A    between atoms: C_3  and  C_2 
REMARK       I    between atoms: N_11  and  C_12 
REMARK    2  A    between atoms: C_12  and  C_14 
REMARK    3  A    between atoms: C_14  and  N_15 
REMARK    4  A    between atoms: C_19  and  C_21 
ROOT
HETATM    1  N   UNK N   1     168.395 153.848 155.549  0.00  0.00    -0.259 N 
HETATM    2  C   UNK N   1     168.806 154.518 154.470  0.00  0.00     0.326 A 
HETATM    3  O   UNK N   1     169.769 154.196 153.793  0.00  0.00    -0.247 OA
HETATM    4  N   UNK N   1     168.018 155.572 154.179  0.00  0.00    -0.321 N 
HETATM    5  C   UNK N   1     166.930 155.645 155.151  0.00  0.00     0.140 A 
HETATM    6  C   UNK N   1     165.612 155.320 154.452  0.00  0.00     0.054 C 
HETATM    7  C   UNK N   1     167.309 154.472 156.034  0.00  0.00     0.261 A 
HETATM    8  O   UNK N   1     166.691 154.093 157.019  0.00  0.00    -0.270 OA
HETATM    9  H   UNK N   1     168.153 156.196 153.430  0.00  0.00     0.165 HD
ENDROOT
BRANCH   1  10
HETATM   10  C   UNK N   1     168.981 152.618 156.048  0.00  0.00     0.239 C 
BRANCH  10  11
HETATM   11  C   UNK N   1     168.348 151.408 155.382  0.00  0.00     0.239 C 
HETATM   12  N   UNK N   1     169.106 150.494 154.708  0.00  0.00    -0.339 N 
HETATM   13  C   UNK N   1     170.537 150.671 154.559  0.00  0.00     0.147 C 
HETATM   14  C   UNK N   1     168.466 149.370 154.038  0.00  0.00     0.137 C 
HETATM   15  C   UNK N   1     170.893 150.833 153.069  0.00  0.00     0.148 C 
HETATM   16  N   UNK N   1     170.027 150.014 152.217  0.00  0.00    -0.357 N 
HETATM   17  C   UNK N   1     170.187 149.788 150.903  0.00  0.00     0.091 A 
HETATM   18  C   UNK N   1     168.942 149.340 152.621  0.00  0.00     0.034 A 
HETATM   19  C   UNK N   1     169.177 148.939 150.465  0.00  0.00     0.019 A 
HETATM   20  C   UNK N   1     168.383 148.648 151.569  0.00  0.00     0.028 A 
HETATM   21  O   UNK N   1     167.134 151.261 155.438  0.00  0.00    -0.271 OA
BRANCH  14  22
HETATM   22  C   UNK N   1     168.817 148.045 154.706  0.00  0.00     0.027 C 
HETATM   23  C   UNK N   1     168.015 147.851 155.978  0.00  0.00     0.007 C 
ENDBRANCH  14  22
ENDBRANCH  10  11
ENDBRANCH   1  10
BRANCH   5  24
HETATM   24  C   UNK N   1     166.899 156.994 155.850  0.00  0.00    -0.021 A 
HETATM   25  C   UNK N   1     167.666 157.225 157.004  0.00  0.00     0.013 A 
HETATM   26  C   UNK N   1     167.658 158.485 157.619  0.00  0.00     0.043 A 
HETATM   27  C   UNK N   1     166.886 159.522 157.085  0.00  0.00     0.116 A 
HETATM   28  F   UNK N   1     166.882 160.743 157.673  0.00  0.00    -0.206 F 
HETATM   29  C   UNK N   1     166.119 159.303 155.941  0.00  0.00     0.043 A 
HETATM   30  C   UNK N   1     166.126 158.049 155.329  0.00  0.00     0.013 A 
ENDBRANCH   5  24
TORSDOF 4
ENDMDL
MODEL 3
REMARK VINA RESULT:      -6.7      1.758      2.974
REMARK  4 active torsions:
REMARK  status: ('A' for Active; 'I' for Inactive)
REMARK    1  A    between atoms: C_3  and  C_2 
REMARK       I    between atoms: N_11  and  C_12 
REMARK    2  A    between atoms: C_12  and  C_14 
REMARK    3  A    between atoms: C_14  and  N_15 
REMARK    4  A    between atoms: C_19  and  C_21 
ROOT
HETATM    1  N   UNK N   1     168.228 153.878 154.535  0.00  0.00    -0.259 N 
HETATM    2  C   UNK N   1     169.383 154.082 153.897  0.00  0.00     0.326 A 
HETATM    3  O   UNK N   1     169.776 155.179 153.532  0.00  0.00    -0.247 OA
HETATM    4  N   UNK N   1     170.095 152.950 153.732  0.00  0.00    -0.321 N 
HETATM    5  C   UNK N   1     169.368 151.832 154.328  0.00  0.00     0.140 A 
HETATM    6  C   UNK N   1     170.130 151.337 155.555  0.00  0.00     0.054 C 
HETATM    7  C   UNK N   1     168.126 152.564 154.795  0.00  0.00     0.261 A 
HETATM    8  O   UNK N   1     167.179 152.060 155.380  0.00  0.00    -0.270 OA
HETATM    9  H   UNK N   1     170.967 152.885 153.281  0.00  0.00     0.165 HD
ENDROOT
BRANCH   1  10
HETATM   10  C   UNK N   1     167.298 154.915 154.942  0.00  0.00     0.239 C 
BRANCH  10  11
HETATM   11  C   UNK N   1     167.749 155.568 156.237  0.00  0.00     0.239 C 
HETATM   12  N   UNK N   1     166.994 156.527 156.847  0.00  0.00    -0.339 N 
HETATM   13  C   UNK N   1     165.757 156.997 156.254  0.00  0.00     0.147 C 
HETATM   14  C   UNK N   1     167.475 157.171 158.063  0.00  0.00     0.137 C 
HETATM   15  C   UNK N   1     165.879 158.491 155.899  0.00  0.00     0.148 C 
HETATM   16  N   UNK N   1     166.699 159.211 156.877  0.00  0.00    -0.357 N 
HETATM   17  C   UNK N   1     166.853 160.541 156.961  0.00  0.00     0.091 A 
HETATM   18  C   UNK N   1     167.416 158.651 157.861  0.00  0.00     0.034 A 
HETATM   19  C   UNK N   1     167.685 160.833 158.036  0.00  0.00     0.019 A 
HETATM   20  C   UNK N   1     168.040 159.620 158.616  0.00  0.00     0.028 A 
HETATM   21  O   UNK N   1     168.819 155.237 156.734  0.00  0.00    -0.271 OA
BRANCH  14  22
HETATM   22  C   UNK N   1     166.620 156.801 159.269  0.00  0.00     0.027 C 
HETATM   23  C   UNK N   1     167.227 155.636 160.027  0.00  0.00     0.007 C 
ENDBRANCH  14  22
ENDBRANCH  10  11
ENDBRANCH   1  10
BRANCH   5  24
HETATM   24  C   UNK N   1     169.122 150.727 153.313  0.00  0.00    -0.021 A 
HETATM   25  C   UNK N   1     169.172 150.992 151.934  0.00  0.00     0.013 A 
HETATM   26  C   UNK N   1     168.979 149.957 151.007  0.00  0.00     0.043 A 
HETATM   27  C   UNK N   1     168.738 148.652 151.451  0.00  0.00     0.116 A 
HETATM   28  F   UNK N   1     168.559 147.650 150.557  0.00  0.00    -0.206 F 
HETATM   29  C   UNK N   1     168.684 148.380 152.817  0.00  0.00     0.043 A 
HETATM   30  C   UNK N   1     168.875 149.408 153.740  0.00  0.00     0.013 A 
ENDBRANCH   5  24
TORSDOF 4
ENDMDL
MODEL 4
REMARK VINA RESULT:      -6.3      3.306      5.088
REMARK  4 active torsions:
REMARK  status: ('A' for Active; 'I' for Inactive)
REMARK    1  A    between atoms: C_3  and  C_2 
REMARK       I    between atoms: N_11  and  C_12 
REMARK    2  A    between atoms: C_12  and  C_14 
REMARK    3  A    between atoms: C_14  and  N_15 
REMARK    4  A    between atoms: C_19  and  C_21 
ROOT
HETATM    1  N   UNK N   1     165.211 156.950 154.539  0.00  0.00    -0.259 N 
HETATM    2  C   UNK N   1     166.037 157.801 153.928  0.00  0.00     0.326 A 
HETATM    3  O   UNK N   1     165.800 158.989 153.773  0.00  0.00    -0.247 OA
HETATM    4  N   UNK N   1     167.187 157.220 153.532  0.00  0.00    -0.321 N 
HETATM    5  C   UNK N   1     167.173 155.811 153.917  0.00  0.00     0.140 A 
HETATM    6  C   UNK N   1     168.215 155.580 155.009  0.00  0.00     0.054 C 
HETATM    7  C   UNK N   1     165.794 155.740 154.543  0.00  0.00     0.261 A 
HETATM    8  O   UNK N   1     165.289 154.744 155.040  0.00  0.00    -0.270 OA
HETATM    9  H   UNK N   1     167.922 157.673 153.059  0.00  0.00     0.165 HD
ENDROOT
BRANCH   1  10
HETATM   10  C   UNK N   1     163.947 157.302 155.158  0.00  0.00     0.239 C 
BRANCH  10  11
HETATM   11  C   UNK N   1     164.018 157.136 156.666  0.00  0.00     0.239 C 
HETATM   12  N   UNK N   1     163.182 156.282 157.324  0.00  0.00    -0.339 N 
HETATM   13  C   UNK N   1     162.159 155.538 156.614  0.00  0.00     0.147 C 
HETATM   14  C   UNK N   1     163.240 156.179 158.777  0.00  0.00     0.137 C 
HETATM   15  C   UNK N   1     160.763 155.966 157.106  0.00  0.00     0.148 C 
HETATM   16  N   UNK N   1     160.770 156.281 158.537  0.00  0.00    -0.357 N 
HETATM   17  C   UNK N   1     159.695 156.509 159.308  0.00  0.00     0.091 A 
HETATM   18  C   UNK N   1     161.859 156.374 159.313  0.00  0.00     0.034 A 
HETATM   19  C   UNK N   1     160.115 156.744 160.612  0.00  0.00     0.019 A 
HETATM   20  C   UNK N   1     161.503 156.651 160.615  0.00  0.00     0.028 A 
HETATM   21  O   UNK N   1     164.831 157.794 157.303  0.00  0.00    -0.271 OA
BRANCH  14  22
HETATM   22  C   UNK N   1     163.757 154.815 159.222  0.00  0.00     0.027 C 
HETATM   23  C   UNK N   1     165.263 154.838 159.396  0.00  0.00     0.007 C 
ENDBRANCH  14  22
ENDBRANCH  10  11
ENDBRANCH   1  10
BRANCH   5  24
HETATM   24  C   UNK N   1     167.384 154.906 152.714  0.00  0.00    -0.021 A 
HETATM   25  C   UNK N   1     168.109 153.709 152.833  0.00  0.00     0.013 A 
HETATM   26  C   UNK N   1     168.266 152.864 151.725  0.00  0.00     0.043 A 
HETATM   27  C   UNK N   1     167.699 153.208 150.493  0.00  0.00     0.116 A 
HETATM   28  F   UNK N   1     167.843 152.389 149.423  0.00  0.00    -0.206 F 
HETATM   29  C   UNK N   1     166.979 154.395 150.365  0.00  0.00     0.043 A 
HETATM   30  C   UNK N   1     166.823 155.237 151.466  0.00  0.00     0.013 A 
ENDBRANCH   5  24
TORSDOF 4
ENDMDL
MODEL 5
REMARK VINA RESULT:      -6.3      3.535      8.672
REMARK  4 active torsions:
REMARK  status: ('A' for Active; 'I' for Inactive)
REMARK    1  A    between atoms: C_3  and  C_2 
REMARK       I    between atoms: N_11  and  C_12 
REMARK    2  A    between atoms: C_12  and  C_14 
REMARK    3  A    between atoms: C_14  and  N_15 
REMARK    4  A    between atoms: C_19  and  C_21 
ROOT
HETATM    1  N   UNK N   1     166.968 154.838 155.632  0.00  0.00    -0.259 N 
HETATM    2  C   UNK N   1     165.791 155.022 156.234  0.00  0.00     0.326 A 
HETATM    3  O   UNK N   1     164.737 154.558 155.828  0.00  0.00    -0.247 OA
HETATM    4  N   UNK N   1     165.892 155.745 157.368  0.00  0.00    -0.321 N 
HETATM    5  C   UNK N   1     167.291 156.097 157.593  0.00  0.00     0.140 A 
HETATM    6  C   UNK N   1     167.805 155.347 158.820  0.00  0.00     0.054 C 
HETATM    7  C   UNK N   1     167.905 155.473 156.355  0.00  0.00     0.261 A 
HETATM    8  O   UNK N   1     169.093 155.485 156.066  0.00  0.00    -0.270 OA
HETATM    9  H   UNK N   1     165.141 155.996 157.953  0.00  0.00     0.165 HD
ENDROOT
BRANCH   1  10
HETATM   10  C   UNK N   1     167.190 154.023 154.453  0.00  0.00     0.239 C 
BRANCH  10  11
HETATM   11  C   UNK N   1     167.632 152.621 154.838  0.00  0.00     0.239 C 
HETATM   12  N   UNK N   1     168.648 151.993 154.179  0.00  0.00    -0.339 N 
HETATM   13  C   UNK N   1     169.310 152.619 153.052  0.00  0.00     0.147 C 
HETATM   14  C   UNK N   1     169.017 150.630 154.539  0.00  0.00     0.137 C 
HETATM   15  C   UNK N   1     169.075 151.786 151.777  0.00  0.00     0.148 C 
HETATM   16  N   UNK N   1     169.035 150.351 152.071  0.00  0.00    -0.357 N 
HETATM   17  C   UNK N   1     169.027 149.354 151.173  0.00  0.00     0.091 A 
HETATM   18  C   UNK N   1     169.017 149.803 153.294  0.00  0.00     0.034 A 
HETATM   19  C   UNK N   1     169.014 148.138 151.848  0.00  0.00     0.019 A 
HETATM   20  C   UNK N   1     169.014 148.428 153.208  0.00  0.00     0.028 A 
HETATM   21  O   UNK N   1     167.053 152.041 155.749  0.00  0.00    -0.271 OA
BRANCH  14  22
HETATM   22  C   UNK N   1     170.403 150.573 155.172  0.00  0.00     0.027 C 
HETATM   23  C   UNK N   1     170.356 149.874 156.517  0.00  0.00     0.007 C 
ENDBRANCH  14  22
ENDBRANCH  10  11
ENDBRANCH   1  10
BRANCH   5  24
HETATM   24  C   UNK N   1     167.472 157.601 157.715  0.00  0.00    -0.021 A 
HETATM   25  C   UNK N   1     166.593 158.486 157.067  0.00  0.00     0.013 A 
HETATM   26  C   UNK N   1     166.748 159.872 157.216  0.00  0.00     0.043 A 
HETATM   27  C   UNK N   1     167.778 160.382 158.014  0.00  0.00     0.116 A 
HETATM   28  F   UNK N   1     167.924 161.721 158.166  0.00  0.00    -0.206 F 
HETATM   29  C   UNK N   1     168.656 159.512 158.659  0.00  0.00     0.043 A 
HETATM   30  C   UNK N   1     168.504 158.133 158.511  0.00  0.00     0.013 A 
ENDBRANCH   5  24
TORSDOF 4
ENDMDL
MODEL 6
REMARK VINA RESULT:      -6.3      1.659      3.140
REMARK  4 active torsions:
REMARK  status: ('A' for Active; 'I' for Inactive)
REMARK    1  A    between atoms: C_3  and  C_2 
REMARK       I    between atoms: N_11  and  C_12 
REMARK    2  A    between atoms: C_12  and  C_14 
REMARK    3  A    between atoms: C_14  and  N_15 
REMARK    4  A    between atoms: C_19  and  C_21 
ROOT
HETATM    1  N   UNK N   1     167.511 154.976 154.146  0.00  0.00    -0.259 N 
HETATM    2  C   UNK N   1     168.819 155.044 153.887  0.00  0.00     0.326 A 
HETATM    3  O   UNK N   1     169.353 155.983 153.319  0.00  0.00    -0.247 OA
HETATM    4  N   UNK N   1     169.500 153.980 154.357  0.00  0.00    -0.321 N 
HETATM    5  C   UNK N   1     168.574 153.072 155.028  0.00  0.00     0.140 A 
HETATM    6  C   UNK N   1     168.868 153.076 156.526  0.00  0.00     0.054 C 
HETATM    7  C   UNK N   1     167.278 153.820 154.789  0.00  0.00     0.261 A 
HETATM    8  O   UNK N   1     166.171 153.467 155.171  0.00  0.00    -0.270 OA
HETATM    9  H   UNK N   1     170.470 153.837 154.263  0.00  0.00     0.165 HD
ENDROOT
BRANCH   1  10
HETATM   10  C   UNK N   1     166.541 156.013 153.851  0.00  0.00     0.239 C 
BRANCH  10  11
HETATM   11  C   UNK N   1     166.451 157.010 154.994  0.00  0.00     0.239 C 
HETATM   12  N   UNK N   1     165.421 156.972 155.888  0.00  0.00    -0.339 N 
HETATM   13  C   UNK N   1     164.345 156.009 155.751  0.00  0.00     0.147 C 
HETATM   14  C   UNK N   1     165.335 157.971 156.945  0.00  0.00     0.137 C 
HETATM   15  C   UNK N   1     163.013 156.744 155.506  0.00  0.00     0.148 C 
HETATM   16  N   UNK N   1     162.954 158.011 156.239  0.00  0.00    -0.357 N 
HETATM   17  C   UNK N   1     161.876 158.797 156.386  0.00  0.00     0.091 A 
HETATM   18  C   UNK N   1     163.972 158.581 156.900  0.00  0.00     0.034 A 
HETATM   19  C   UNK N   1     162.219 159.892 157.171  0.00  0.00     0.019 A 
HETATM   20  C   UNK N   1     163.561 159.749 157.504  0.00  0.00     0.028 A 
HETATM   21  O   UNK N   1     167.313 157.873 155.103  0.00  0.00    -0.271 OA
BRANCH  14  22
HETATM   22  C   UNK N   1     165.556 157.352 158.321  0.00  0.00     0.027 C 
HETATM   23  C   UNK N   1     166.940 157.681 158.846  0.00  0.00     0.007 C 
ENDBRANCH  14  22
ENDBRANCH  10  11
ENDBRANCH   1  10
BRANCH   5  24
HETATM   24  C   UNK N   1     168.634 151.677 154.429  0.00  0.00    -0.021 A 
HETATM   25  C   UNK N   1     168.051 150.583 155.092  0.00  0.00     0.013 A 
HETATM   26  C   UNK N   1     168.082 149.307 154.512  0.00  0.00     0.043 A 
HETATM   27  C   UNK N   1     168.691 149.114 153.267  0.00  0.00     0.116 A 
HETATM   28  F   UNK N   1     168.714 147.883 152.702  0.00  0.00    -0.206 F 
HETATM   29  C   UNK N   1     169.274 150.192 152.603  0.00  0.00     0.043 A 
HETATM   30  C   UNK N   1     169.245 151.463 153.179  0.00  0.00     0.013 A 
ENDBRANCH   5  24
TORSDOF 4
ENDMDL
MODEL 7
REMARK VINA RESULT:      -6.3      5.199      9.041
REMARK  4 active torsions:
REMARK  status: ('A' for Active; 'I' for Inactive)
REMARK    1  A    between atoms: C_3  and  C_2 
REMARK       I    between atoms: N_11  and  C_12 
REMARK    2  A    between atoms: C_12  and  C_14 
REMARK    3  A    between atoms: C_14  and  N_15 
REMARK    4  A    between atoms: C_19  and  C_21 
ROOT
HETATM    1  N   UNK N   1     163.782 155.826 159.177  0.00  0.00    -0.259 N 
HETATM    2  C   UNK N   1     163.294 154.596 159.005  0.00  0.00     0.326 A 
HETATM    3  O   UNK N   1     163.908 153.687 158.469  0.00  0.00    -0.247 OA
HETATM    4  N   UNK N   1     162.059 154.447 159.526  0.00  0.00    -0.321 N 
HETATM    5  C   UNK N   1     161.639 155.704 160.139  0.00  0.00     0.140 A 
HETATM    6  C   UNK N   1     161.570 155.523 161.654  0.00  0.00     0.054 C 
HETATM    7  C   UNK N   1     162.849 156.556 159.810  0.00  0.00     0.261 A 
HETATM    8  O   UNK N   1     163.000 157.729 160.120  0.00  0.00    -0.270 OA
HETATM    9  H   UNK N   1     161.524 153.621 159.497  0.00  0.00     0.165 HD
ENDROOT
BRANCH   1  10
HETATM   10  C   UNK N   1     165.118 156.258 158.813  0.00  0.00     0.239 C 
BRANCH  10  11
HETATM   11  C   UNK N   1     165.152 156.766 157.382  0.00  0.00     0.239 C 
HETATM   12  N   UNK N   1     165.788 156.068 156.398  0.00  0.00    -0.339 N 
HETATM   13  C   UNK N   1     166.502 154.840 156.691  0.00  0.00     0.147 C 
HETATM   14  C   UNK N   1     165.845 156.604 155.044  0.00  0.00     0.137 C 
HETATM   15  C   UNK N   1     168.002 155.021 156.390  0.00  0.00     0.148 C 
HETATM   16  N   UNK N   1     168.218 155.894 155.234  0.00  0.00    -0.357 N 
HETATM   17  C   UNK N   1     169.384 156.109 154.605  0.00  0.00     0.091 A 
HETATM   18  C   UNK N   1     167.274 156.607 154.604  0.00  0.00     0.034 A 
HETATM   19  C   UNK N   1     169.170 156.977 153.540  0.00  0.00     0.019 A 
HETATM   20  C   UNK N   1     167.815 157.290 153.537  0.00  0.00     0.028 A 
HETATM   21  O   UNK N   1     164.609 157.830 157.113  0.00  0.00    -0.271 OA
BRANCH  14  22
HETATM   22  C   UNK N   1     165.029 155.760 154.072  0.00  0.00     0.027 C 
HETATM   23  C   UNK N   1     164.330 156.636 153.049  0.00  0.00     0.007 C 
ENDBRANCH  14  22
ENDBRANCH  10  11
ENDBRANCH   1  10
BRANCH   5  24
HETATM   24  C   UNK N   1     160.326 156.195 159.553  0.00  0.00    -0.021 A 
HETATM   25  C   UNK N   1     160.139 156.264 158.162  0.00  0.00     0.013 A 
HETATM   26  C   UNK N   1     158.910 156.685 157.632  0.00  0.00     0.043 A 
HETATM   27  C   UNK N   1     157.861 157.036 158.488  0.00  0.00     0.116 A 
HETATM   28  F   UNK N   1     156.670 157.436 157.978  0.00  0.00    -0.206 F 
HETATM   29  C   UNK N   1     158.036 156.974 159.869  0.00  0.00     0.043 A 
HETATM   30  C   UNK N   1     159.259 156.556 160.397  0.00  0.00     0.013 A 
ENDBRANCH   5  24
TORSDOF 4
ENDMDL
MODEL 8
REMARK VINA RESULT:      -6.2      5.339     10.443
REMARK  4 active torsions:
REMARK  status: ('A' for Active; 'I' for Inactive)
REMARK    1  A    between atoms: C_3  and  C_2 
REMARK       I    between atoms: N_11  and  C_12 
REMARK    2  A    between atoms: C_12  and  C_14 
REMARK    3  A    between atoms: C_14  and  N_15 
REMARK    4  A    between atoms: C_19  and  C_21 
ROOT
HETATM    1  N   UNK N   1     165.632 160.421 157.114  0.00  0.00    -0.259 N 
HETATM    2  C   UNK N   1     165.183 161.612 156.711  0.00  0.00     0.326 A 
HETATM    3  O   UNK N   1     165.692 162.265 155.814  0.00  0.00    -0.247 OA
HETATM    4  N   UNK N   1     164.075 162.003 157.373  0.00  0.00    -0.321 N 
HETATM    5  C   UNK N   1     163.700 160.972 158.337  0.00  0.00     0.140 A 
HETATM    6  C   UNK N   1     162.391 160.323 157.892  0.00  0.00     0.054 C 
HETATM    7  C   UNK N   1     164.830 159.990 158.101  0.00  0.00     0.261 A 
HETATM    8  O   UNK N   1     164.976 158.920 158.676  0.00  0.00    -0.270 OA
HETATM    9  H   UNK N   1     163.595 162.850 157.229  0.00  0.00     0.165 HD
ENDROOT
BRANCH   1  10
HETATM   10  C   UNK N   1     166.743 159.699 156.524  0.00  0.00     0.239 C 
BRANCH  10  11
HETATM   11  C   UNK N   1     166.253 158.717 155.474  0.00  0.00     0.239 C 
HETATM   12  N   UNK N   1     166.494 157.379 155.589  0.00  0.00    -0.339 N 
HETATM   13  C   UNK N   1     167.272 156.849 156.692  0.00  0.00     0.147 C 
HETATM   14  C   UNK N   1     166.054 156.466 154.542  0.00  0.00     0.137 C 
HETATM   15  C   UNK N   1     168.561 156.194 156.158  0.00  0.00     0.148 C 
HETATM   16  N   UNK N   1     168.338 155.545 154.864  0.00  0.00    -0.357 N 
HETATM   17  C   UNK N   1     169.196 154.738 154.220  0.00  0.00     0.091 A 
HETATM   18  C   UNK N   1     167.226 155.639 154.122  0.00  0.00     0.034 A 
HETATM   19  C   UNK N   1     168.606 154.302 153.039  0.00  0.00     0.019 A 
HETATM   20  C   UNK N   1     167.340 154.875 152.980  0.00  0.00     0.028 A 
HETATM   21  O   UNK N   1     165.644 159.139 154.499  0.00  0.00    -0.271 OA
BRANCH  14  22
HETATM   22  C   UNK N   1     164.946 155.541 155.033  0.00  0.00     0.027 C 
HETATM   23  C   UNK N   1     163.585 156.190 154.864  0.00  0.00     0.007 C 
ENDBRANCH  14  22
ENDBRANCH  10  11
ENDBRANCH   1  10
BRANCH   5  24
HETATM   24  C   UNK N   1     163.618 161.535 159.747  0.00  0.00    -0.021 A 
HETATM   25  C   UNK N   1     162.396 161.564 160.439  0.00  0.00     0.013 A 
HETATM   26  C   UNK N   1     162.339 162.053 161.753  0.00  0.00     0.043 A 
HETATM   27  C   UNK N   1     163.501 162.512 162.383  0.00  0.00     0.116 A 
HETATM   28  F   UNK N   1     163.449 162.978 163.654  0.00  0.00    -0.206 F 
HETATM   29  C   UNK N   1     164.717 162.490 161.703  0.00  0.00     0.043 A 
HETATM   30  C   UNK N   1     164.775 162.005 160.395  0.00  0.00     0.013 A 
ENDBRANCH   5  24
TORSDOF 4
ENDMDL
MODEL 9
REMARK VINA RESULT:      -6.2      4.508      6.710
REMARK  4 active torsions:
REMARK  status: ('A' for Active; 'I' for Inactive)
REMARK    1  A    between atoms: C_3  and  C_2 
REMARK       I    between atoms: N_11  and  C_12 
REMARK    2  A    between atoms: C_12  and  C_14 
REMARK    3  A    between atoms: C_14  and  N_15 
REMARK    4  A    between atoms: C_19  and  C_21 
ROOT
HETATM    1  N   UNK N   1     163.351 155.822 158.117  0.00  0.00    -0.259 N 
HETATM    2  C   UNK N   1     163.875 154.600 158.243  0.00  0.00     0.326 A 
HETATM    3  O   UNK N   1     164.128 154.074 159.315  0.00  0.00    -0.247 OA
HETATM    4  N   UNK N   1     164.057 153.986 157.058  0.00  0.00    -0.321 N 
HETATM    5  C   UNK N   1     163.604 154.865 155.983  0.00  0.00     0.140 A 
HETATM    6  C   UNK N   1     162.354 154.267 155.341  0.00  0.00     0.054 C 
HETATM    7  C   UNK N   1     163.193 156.070 156.807  0.00  0.00     0.261 A 
HETATM    8  O   UNK N   1     162.726 157.109 156.364  0.00  0.00    -0.270 OA
HETATM    9  H   UNK N   1     164.436 153.086 156.934  0.00  0.00     0.165 HD
ENDROOT
BRANCH   1  10
HETATM   10  C   UNK N   1     162.953 156.683 159.215  0.00  0.00     0.239 C 
BRANCH  10  11
HETATM   11  C   UNK N   1     164.144 157.454 159.757  0.00  0.00     0.239 C 
HETATM   12  N   UNK N   1     164.309 158.782 159.490  0.00  0.00    -0.339 N 
HETATM   13  C   UNK N   1     163.380 159.495 158.635  0.00  0.00     0.147 C 
HETATM   14  C   UNK N   1     165.487 159.484 159.984  0.00  0.00     0.137 C 
HETATM   15  C   UNK N   1     164.110 159.998 157.374  0.00  0.00     0.148 C 
HETATM   16  N   UNK N   1     165.490 160.388 157.671  0.00  0.00    -0.357 N 
HETATM   17  C   UNK N   1     166.331 161.030 156.844  0.00  0.00     0.091 A 
HETATM   18  C   UNK N   1     166.131 160.181 158.829  0.00  0.00     0.034 A 
HETATM   19  C   UNK N   1     167.537 161.244 157.503  0.00  0.00     0.019 A 
HETATM   20  C   UNK N   1     167.405 160.704 158.778  0.00  0.00     0.028 A 
HETATM   21  O   UNK N   1     164.979 156.867 160.435  0.00  0.00    -0.271 OA
BRANCH  14  22
HETATM   22  C   UNK N   1     165.121 160.516 161.044  0.00  0.00     0.027 C 
HETATM   23  C   UNK N   1     165.664 160.113 162.402  0.00  0.00     0.007 C 
ENDBRANCH  14  22
ENDBRANCH  10  11
ENDBRANCH   1  10
BRANCH   5  24
HETATM   24  C   UNK N   1     164.709 155.121 154.972  0.00  0.00    -0.021 A 
HETATM   25  C   UNK N   1     164.502 155.983 153.882  0.00  0.00     0.013 A 
HETATM   26  C   UNK N   1     165.541 156.240 152.976  0.00  0.00     0.043 A 
HETATM   27  C   UNK N   1     166.793 155.641 153.154  0.00  0.00     0.116 A 
HETATM   28  F   UNK N   1     167.800 155.893 152.283  0.00  0.00    -0.206 F 
HETATM   29  C   UNK N   1     167.007 154.782 154.231  0.00  0.00     0.043 A 
HETATM   30  C   UNK N   1     165.974 154.525 155.133  0.00  0.00     0.013 A 
ENDBRANCH   5  24
TORSDOF 4
ENDMDL
