MODEL 1
REMARK VINA RESULT:      -6.1      0.000      0.000
REMARK  4 active torsions:
REMARK  status: ('A' for Active; 'I' for Inactive)
REMARK       I    between atoms: C_2  and  N_4 
REMARK    1  A    between atoms: N_4  and  C_5 
REMARK    2  A    between atoms: C_5  and  C_6 
REMARK    3  A    between atoms: C_9  and  C_10 
REMARK       I    between atoms: C_10  and  N_12 
REMARK    4  A    between atoms: C_15  and  O_16 
ROOT
HETATM    1  C   UNK N   1     168.648 152.495 155.679  0.00  0.00     0.260 C 
HETATM    2  O   UNK N   1     168.831 152.480 156.890  0.00  0.00    -0.267 OA
HETATM    3  N   UNK N   1     168.571 153.696 155.027  0.00  0.00    -0.347 N 
HETATM    4  C   UNK N   1     168.343 153.790 153.599  0.00  0.00     0.129 C 
HETATM    5  C   UNK N   1     167.096 154.635 153.294  0.00  0.00     0.058 C 
HETATM    6  C   UNK N   1     166.334 155.056 154.557  0.00  0.00     0.064 C 
HETATM    7  C   UNK N   1     165.205 156.003 154.128  0.00  0.00     0.038 C 
HETATM    8  C   UNK N   1     165.030 157.173 155.090  0.00  0.00     0.003 C 
HETATM    9  C   UNK N   1     166.316 158.010 155.136  0.00  0.00     0.001 C 
HETATM   10  C   UNK N   1     167.604 157.169 155.195  0.00  0.00     0.009 C 
HETATM   11  C   UNK N   1     167.308 155.721 155.576  0.00  0.00     0.038 C 
HETATM   12  C   UNK N   1     168.619 154.936 155.772  0.00  0.00     0.133 C 
ENDROOT
BRANCH   1  13
HETATM   13  C   UNK N   1     168.496 151.189 154.981  0.00  0.00     0.073 A 
HETATM   14  C   UNK N   1     167.616 150.140 155.288  0.00  0.00     0.026 A 
HETATM   15  C   UNK N   1     167.738 149.023 154.412  0.00  0.00     0.018 A 
HETATM   16  C   UNK N   1     168.722 149.207 153.439  0.00  0.00     0.001 A 
HETATM   17  S   UNK N   1     169.389 150.700 153.670  0.00  0.00    -0.088 SA
BRANCH  16  18
HETATM   18  C   UNK N   1     169.063 148.255 152.351  0.00  0.00     0.168 C 
BRANCH  18  19
HETATM   19  N   UNK N   1     169.450 149.002 151.181  0.00  0.00    -0.357 N 
HETATM   20  C   UNK N   1     168.591 149.247 150.165  0.00  0.00     0.213 C 
HETATM   21  C   UNK N   1     169.071 149.981 148.961  0.00  0.00     0.117 C 
HETATM   22  O   UNK N   1     167.430 148.872 150.224  0.00  0.00    -0.274 OA
HETATM   23  H   UNK N   1     170.370 149.348 151.120  0.00  0.00     0.162 HD
ENDBRANCH  18  19
ENDBRANCH  16  18
ENDBRANCH   1  13
BRANCH   6  24
HETATM   24  O   UNK N   1     165.765 153.924 155.148  0.00  0.00    -0.389 OA
HETATM   25  H   UNK N   1     164.821 154.083 155.306  0.00  0.00     0.210 HD
ENDBRANCH   6  24
TORSDOF 4
ENDMDL
MODEL 2
REMARK VINA RESULT:      -6.1      2.441      3.619
REMARK  4 active torsions:
REMARK  status: ('A' for Active; 'I' for Inactive)
REMARK       I    between atoms: C_2  and  N_4 
REMARK    1  A    between atoms: N_4  and  C_5 
REMARK    2  A    between atoms: C_5  and  C_6 
REMARK    3  A    between atoms: C_9  and  C_10 
REMARK       I    between atoms: C_10  and  N_12 
REMARK    4  A    between atoms: C_15  and  O_16 
ROOT
HETATM    1  C   UNK N   1     167.873 155.215 154.157  0.00  0.00     0.260 C 
HETATM    2  O   UNK N   1     168.965 155.233 154.713  0.00  0.00    -0.267 OA
HETATM    3  N   UNK N   1     166.793 155.779 154.782  0.00  0.00    -0.347 N 
HETATM    4  C   UNK N   1     165.470 155.782 154.191  0.00  0.00     0.129 C 
HETATM    5  C   UNK N   1     164.448 155.113 155.123  0.00  0.00     0.058 C 
HETATM    6  C   UNK N   1     165.090 154.497 156.373  0.00  0.00     0.064 C 
HETATM    7  C   UNK N   1     163.957 153.993 157.279  0.00  0.00     0.038 C 
HETATM    8  C   UNK N   1     164.225 154.274 158.754  0.00  0.00     0.003 C 
HETATM    9  C   UNK N   1     164.336 155.787 158.987  0.00  0.00     0.001 C 
HETATM   10  C   UNK N   1     165.163 156.522 157.915  0.00  0.00     0.009 C 
HETATM   11  C   UNK N   1     165.994 155.547 157.086  0.00  0.00     0.038 C 
HETATM   12  C   UNK N   1     166.921 156.312 156.122  0.00  0.00     0.133 C 
ENDROOT
BRANCH   1  13
HETATM   13  C   UNK N   1     167.779 154.554 152.827  0.00  0.00     0.073 A 
HETATM   14  C   UNK N   1     167.186 155.049 151.655  0.00  0.00     0.026 A 
HETATM   15  C   UNK N   1     167.269 154.147 150.555  0.00  0.00     0.018 A 
HETATM   16  C   UNK N   1     167.913 152.953 150.884  0.00  0.00     0.001 A 
HETATM   17  S   UNK N   1     168.359 153.041 152.472  0.00  0.00    -0.088 SA
BRANCH  16  18
HETATM   18  C   UNK N   1     168.201 151.831 149.955  0.00  0.00     0.168 C 
BRANCH  18  19
HETATM   19  N   UNK N   1     168.494 150.650 150.727  0.00  0.00    -0.357 N 
HETATM   20  C   UNK N   1     168.354 149.404 150.220  0.00  0.00     0.213 C 
HETATM   21  C   UNK N   1     168.624 148.224 151.089  0.00  0.00     0.117 C 
HETATM   22  O   UNK N   1     168.009 149.236 149.060  0.00  0.00    -0.274 OA
HETATM   23  H   UNK N   1     168.807 150.753 151.654  0.00  0.00     0.162 HD
ENDBRANCH  18  19
ENDBRANCH  16  18
ENDBRANCH   1  13
BRANCH   6  24
HETATM   24  O   UNK N   1     165.876 153.405 155.993  0.00  0.00    -0.389 OA
HETATM   25  H   UNK N   1     166.401 153.107 156.752  0.00  0.00     0.210 HD
ENDBRANCH   6  24
TORSDOF 4
ENDMDL
MODEL 3
REMARK VINA RESULT:      -6.1      1.833      2.549
REMARK  4 active torsions:
REMARK  status: ('A' for Active; 'I' for Inactive)
REMARK       I    between atoms: C_2  and  N_4 
REMARK    1  A    between atoms: N_4  and  C_5 
REMARK    2  A    between atoms: C_5  and  C_6 
REMARK    3  A    between atoms: C_9  and  C_10 
REMARK       I    between atoms: C_10  and  N_12 
REMARK    4  A    between atoms: C_15  and  O_16 
ROOT
HETATM    1  C   UNK N   1     168.639 154.587 153.827  0.00  0.00     0.260 C 
HETATM    2  O   UNK N   1     169.672 155.094 153.406  0.00  0.00    -0.267 OA
HETATM    3  N   UNK N   1     167.534 155.373 154.014  0.00  0.00    -0.347 N 
HETATM    4  C   UNK N   1     166.283 154.845 154.522  0.00  0.00     0.129 C 
HETATM    5  C   UNK N   1     165.844 155.592 155.790  0.00  0.00     0.058 C 
HETATM    6  C   UNK N   1     166.884 156.610 156.277  0.00  0.00     0.064 C 
HETATM    7  C   UNK N   1     166.268 157.380 157.454  0.00  0.00     0.038 C 
HETATM    8  C   UNK N   1     166.604 158.867 157.414  0.00  0.00     0.003 C 
HETATM    9  C   UNK N   1     166.042 159.496 156.132  0.00  0.00     0.001 C 
HETATM   10  C   UNK N   1     166.258 158.638 154.872  0.00  0.00     0.009 C 
HETATM   11  C   UNK N   1     167.303 157.552 155.109  0.00  0.00     0.038 C 
HETATM   12  C   UNK N   1     167.610 156.802 153.798  0.00  0.00     0.133 C 
ENDROOT
BRANCH   1  13
HETATM   13  C   UNK N   1     168.652 153.131 154.137  0.00  0.00     0.073 A 
HETATM   14  C   UNK N   1     168.469 152.509 155.382  0.00  0.00     0.026 A 
HETATM   15  C   UNK N   1     168.550 151.088 155.322  0.00  0.00     0.018 A 
HETATM   16  C   UNK N   1     168.808 150.616 154.033  0.00  0.00     0.001 A 
HETATM   17  S   UNK N   1     168.918 151.924 153.030  0.00  0.00    -0.088 SA
BRANCH  16  18
HETATM   18  C   UNK N   1     168.905 149.192 153.627  0.00  0.00     0.168 C 
BRANCH  18  19
HETATM   19  N   UNK N   1     168.383 149.051 152.291  0.00  0.00    -0.357 N 
HETATM   20  C   UNK N   1     169.169 148.724 151.240  0.00  0.00     0.213 C 
HETATM   21  C   UNK N   1     168.574 148.646 149.877  0.00  0.00     0.117 C 
HETATM   22  O   UNK N   1     170.359 148.495 151.396  0.00  0.00    -0.274 OA
HETATM   23  H   UNK N   1     167.421 149.195 152.139  0.00  0.00     0.162 HD
ENDBRANCH  18  19
ENDBRANCH  16  18
ENDBRANCH   1  13
BRANCH   6  24
HETATM   24  O   UNK N   1     168.014 155.926 156.735  0.00  0.00    -0.389 OA
HETATM   25  H   UNK N   1     168.330 155.325 156.043  0.00  0.00     0.210 HD
ENDBRANCH   6  24
TORSDOF 4
ENDMDL
MODEL 4
REMARK VINA RESULT:      -6.1      3.729      5.333
REMARK  4 active torsions:
REMARK  status: ('A' for Active; 'I' for Inactive)
REMARK       I    between atoms: C_2  and  N_4 
REMARK    1  A    between atoms: N_4  and  C_5 
REMARK    2  A    between atoms: C_5  and  C_6 
REMARK    3  A    between atoms: C_9  and  C_10 
REMARK       I    between atoms: C_10  and  N_12 
REMARK    4  A    between atoms: C_15  and  O_16 
ROOT
HETATM    1  C   UNK N   1     164.694 156.237 156.083  0.00  0.00     0.260 C 
HETATM    2  O   UNK N   1     163.516 156.135 155.764  0.00  0.00    -0.267 OA
HETATM    3  N   UNK N   1     165.056 157.162 157.027  0.00  0.00    -0.347 N 
HETATM    4  C   UNK N   1     166.431 157.348 157.443  0.00  0.00     0.129 C 
HETATM    5  C   UNK N   1     166.878 158.803 157.234  0.00  0.00     0.058 C 
HETATM    6  C   UNK N   1     165.821 159.659 156.525  0.00  0.00     0.064 C 
HETATM    7  C   UNK N   1     166.328 161.108 156.507  0.00  0.00     0.038 C 
HETATM    8  C   UNK N   1     165.218 162.116 156.782  0.00  0.00     0.003 C 
HETATM    9  C   UNK N   1     164.625 161.874 158.176  0.00  0.00     0.001 C 
HETATM   10  C   UNK N   1     164.394 160.387 158.505  0.00  0.00     0.009 C 
HETATM   11  C   UNK N   1     164.446 159.523 157.247  0.00  0.00     0.038 C 
HETATM   12  C   UNK N   1     164.069 158.067 157.577  0.00  0.00     0.133 C 
ENDROOT
BRANCH   1  13
HETATM   13  C   UNK N   1     165.682 155.354 155.403  0.00  0.00     0.073 A 
HETATM   14  C   UNK N   1     166.211 154.137 155.857  0.00  0.00     0.026 A 
HETATM   15  C   UNK N   1     167.144 153.553 154.952  0.00  0.00     0.018 A 
HETATM   16  C   UNK N   1     167.342 154.327 153.808  0.00  0.00     0.001 A 
HETATM   17  S   UNK N   1     166.384 155.667 153.933  0.00  0.00    -0.088 SA
BRANCH  16  18
HETATM   18  C   UNK N   1     168.211 153.978 152.656  0.00  0.00     0.168 C 
BRANCH  18  19
HETATM   19  N   UNK N   1     167.671 154.580 151.463  0.00  0.00    -0.357 N 
HETATM   20  C   UNK N   1     167.454 153.872 150.332  0.00  0.00     0.213 C 
HETATM   21  C   UNK N   1     166.942 154.568 149.118  0.00  0.00     0.117 C 
HETATM   22  O   UNK N   1     167.675 152.671 150.294  0.00  0.00    -0.274 OA
HETATM   23  H   UNK N   1     167.450 155.540 151.473  0.00  0.00     0.162 HD
ENDBRANCH  18  19
ENDBRANCH  16  18
ENDBRANCH   1  13
BRANCH   6  24
HETATM   24  O   UNK N   1     165.685 159.218 155.206  0.00  0.00    -0.389 OA
HETATM   25  H   UNK N   1     164.800 159.446 154.879  0.00  0.00     0.210 HD
ENDBRANCH   6  24
TORSDOF 4
ENDMDL
MODEL 5
REMARK VINA RESULT:      -6.0      2.863      5.170
REMARK  4 active torsions:
REMARK  status: ('A' for Active; 'I' for Inactive)
REMARK       I    between atoms: C_2  and  N_4 
REMARK    1  A    between atoms: N_4  and  C_5 
REMARK    2  A    between atoms: C_5  and  C_6 
REMARK    3  A    between atoms: C_9  and  C_10 
REMARK       I    between atoms: C_10  and  N_12 
REMARK    4  A    between atoms: C_15  and  O_16 
ROOT
HETATM    1  C   UNK N   1     164.970 155.992 155.406  0.00  0.00     0.260 C 
HETATM    2  O   UNK N   1     163.837 155.889 154.954  0.00  0.00    -0.267 OA
HETATM    3  N   UNK N   1     165.190 156.803 156.487  0.00  0.00    -0.347 N 
HETATM    4  C   UNK N   1     166.506 156.984 157.066  0.00  0.00     0.129 C 
HETATM    5  C   UNK N   1     166.902 158.468 157.083  0.00  0.00     0.058 C 
HETATM    6  C   UNK N   1     165.882 159.369 156.375  0.00  0.00     0.064 C 
HETATM    7  C   UNK N   1     166.319 160.826 156.586  0.00  0.00     0.038 C 
HETATM    8  C   UNK N   1     165.139 161.752 156.862  0.00  0.00     0.003 C 
HETATM    9  C   UNK N   1     164.421 161.316 158.147  0.00  0.00     0.001 C 
HETATM   10  C   UNK N   1     164.230 159.793 158.266  0.00  0.00     0.009 C 
HETATM   11  C   UNK N   1     164.449 159.096 156.926  0.00  0.00     0.038 C 
HETATM   12  C   UNK N   1     164.111 157.597 157.035  0.00  0.00     0.133 C 
ENDROOT
BRANCH   1  13
HETATM   13  C   UNK N   1     166.062 155.236 154.732  0.00  0.00     0.073 A 
HETATM   14  C   UNK N   1     166.633 155.479 153.474  0.00  0.00     0.026 A 
HETATM   15  C   UNK N   1     167.660 154.553 153.130  0.00  0.00     0.018 A 
HETATM   16  C   UNK N   1     167.870 153.590 154.118  0.00  0.00     0.001 A 
HETATM   17  S   UNK N   1     166.822 153.901 155.357  0.00  0.00    -0.088 SA
BRANCH  16  18
HETATM   18  C   UNK N   1     168.895 152.516 154.088  0.00  0.00     0.168 C 
BRANCH  18  19
HETATM   19  N   UNK N   1     168.232 151.241 153.978  0.00  0.00    -0.357 N 
HETATM   20  C   UNK N   1     168.118 150.395 155.027  0.00  0.00     0.213 C 
HETATM   21  C   UNK N   1     167.467 149.070 154.832  0.00  0.00     0.117 C 
HETATM   22  O   UNK N   1     168.543 150.704 156.130  0.00  0.00    -0.274 OA
HETATM   23  H   UNK N   1     167.848 150.978 153.111  0.00  0.00     0.162 HD
ENDBRANCH  18  19
ENDBRANCH  16  18
ENDBRANCH   1  13
BRANCH   6  24
HETATM   24  O   UNK N   1     165.900 159.092 155.005  0.00  0.00    -0.389 OA
HETATM   25  H   UNK N   1     165.747 158.145 154.865  0.00  0.00     0.210 HD
ENDBRANCH   6  24
TORSDOF 4
ENDMDL
MODEL 6
REMARK VINA RESULT:      -5.9      2.800      4.577
REMARK  4 active torsions:
REMARK  status: ('A' for Active; 'I' for Inactive)
REMARK       I    between atoms: C_2  and  N_4 
REMARK    1  A    between atoms: N_4  and  C_5 
REMARK    2  A    between atoms: C_5  and  C_6 
REMARK    3  A    between atoms: C_9  and  C_10 
REMARK       I    between atoms: C_10  and  N_12 
REMARK    4  A    between atoms: C_15  and  O_16 
ROOT
HETATM    1  C   UNK N   1     167.640 156.822 153.581  0.00  0.00     0.260 C 
HETATM    2  O   UNK N   1     168.292 157.700 153.029  0.00  0.00    -0.267 OA
HETATM    3  N   UNK N   1     166.648 157.175 154.457  0.00  0.00    -0.347 N 
HETATM    4  C   UNK N   1     165.846 156.192 155.158  0.00  0.00     0.129 C 
HETATM    5  C   UNK N   1     165.939 156.388 156.679  0.00  0.00     0.058 C 
HETATM    6  C   UNK N   1     166.944 157.473 157.084  0.00  0.00     0.064 C 
HETATM    7  C   UNK N   1     166.836 157.666 158.603  0.00  0.00     0.038 C 
HETATM    8  C   UNK N   1     166.920 159.133 159.010  0.00  0.00     0.003 C 
HETATM    9  C   UNK N   1     165.760 159.918 158.382  0.00  0.00     0.001 C 
HETATM   10  C   UNK N   1     165.489 159.556 156.910  0.00  0.00     0.009 C 
HETATM   11  C   UNK N   1     166.659 158.789 156.299  0.00  0.00     0.038 C 
HETATM   12  C   UNK N   1     166.431 158.567 154.792  0.00  0.00     0.133 C 
ENDROOT
BRANCH   1  13
HETATM   13  C   UNK N   1     167.982 155.405 153.282  0.00  0.00     0.073 A 
HETATM   14  C   UNK N   1     167.554 154.621 152.200  0.00  0.00     0.026 A 
HETATM   15  C   UNK N   1     168.070 153.294 152.223  0.00  0.00     0.018 A 
HETATM   16  C   UNK N   1     168.886 153.051 153.329  0.00  0.00     0.001 A 
HETATM   17  S   UNK N   1     168.954 154.441 154.220  0.00  0.00    -0.088 SA
BRANCH  16  18
HETATM   18  C   UNK N   1     169.612 151.789 153.621  0.00  0.00     0.168 C 
BRANCH  18  19
HETATM   19  N   UNK N   1     168.654 150.725 153.778  0.00  0.00    -0.357 N 
HETATM   20  C   UNK N   1     168.218 150.320 154.992  0.00  0.00     0.213 C 
HETATM   21  C   UNK N   1     167.266 149.178 155.086  0.00  0.00     0.117 C 
HETATM   22  O   UNK N   1     168.598 150.877 156.011  0.00  0.00    -0.274 OA
HETATM   23  H   UNK N   1     168.303 150.278 152.974  0.00  0.00     0.162 HD
ENDBRANCH  18  19
ENDBRANCH  16  18
ENDBRANCH   1  13
BRANCH   6  24
HETATM   24  O   UNK N   1     168.237 157.036 156.781  0.00  0.00    -0.389 OA
HETATM   25  H   UNK N   1     168.193 156.152 156.384  0.00  0.00     0.210 HD
ENDBRANCH   6  24
TORSDOF 4
ENDMDL
MODEL 7
REMARK VINA RESULT:      -5.9      4.358      8.568
REMARK  4 active torsions:
REMARK  status: ('A' for Active; 'I' for Inactive)
REMARK       I    between atoms: C_2  and  N_4 
REMARK    1  A    between atoms: N_4  and  C_5 
REMARK    2  A    between atoms: C_5  and  C_6 
REMARK    3  A    between atoms: C_9  and  C_10 
REMARK       I    between atoms: C_10  and  N_12 
REMARK    4  A    between atoms: C_15  and  O_16 
ROOT
HETATM    1  C   UNK N   1     164.186 156.201 154.239  0.00  0.00     0.260 C 
HETATM    2  O   UNK N   1     163.702 155.878 153.161  0.00  0.00    -0.267 OA
HETATM    3  N   UNK N   1     165.548 156.219 154.384  0.00  0.00    -0.347 N 
HETATM    4  C   UNK N   1     166.190 156.577 155.633  0.00  0.00     0.129 C 
HETATM    5  C   UNK N   1     167.115 155.452 156.120  0.00  0.00     0.058 C 
HETATM    6  C   UNK N   1     167.035 154.191 155.249  0.00  0.00     0.064 C 
HETATM    7  C   UNK N   1     168.100 153.207 155.753  0.00  0.00     0.038 C 
HETATM    8  C   UNK N   1     168.812 152.488 154.612  0.00  0.00     0.003 C 
HETATM    9  C   UNK N   1     169.538 153.507 153.723  0.00  0.00     0.001 C 
HETATM   10  C   UNK N   1     168.709 154.770 153.420  0.00  0.00     0.009 C 
HETATM   11  C   UNK N   1     167.233 154.560 153.748  0.00  0.00     0.038 C 
HETATM   12  C   UNK N   1     166.403 155.779 153.302  0.00  0.00     0.133 C 
ENDROOT
BRANCH   1  13
HETATM   13  C   UNK N   1     163.254 156.538 155.349  0.00  0.00     0.073 A 
HETATM   14  C   UNK N   1     162.754 157.799 155.707  0.00  0.00     0.026 A 
HETATM   15  C   UNK N   1     161.882 157.763 156.833  0.00  0.00     0.018 A 
HETATM   16  C   UNK N   1     161.721 156.477 157.351  0.00  0.00     0.001 A 
HETATM   17  S   UNK N   1     162.624 155.446 156.428  0.00  0.00    -0.088 SA
BRANCH  16  18
HETATM   18  C   UNK N   1     160.847 156.095 158.488  0.00  0.00     0.168 C 
BRANCH  18  19
HETATM   19  N   UNK N   1     161.673 155.755 159.619  0.00  0.00    -0.357 N 
HETATM   20  C   UNK N   1     161.159 155.238 160.758  0.00  0.00     0.213 C 
HETATM   21  C   UNK N   1     162.063 154.958 161.909  0.00  0.00     0.117 C 
HETATM   22  O   UNK N   1     159.965 155.000 160.854  0.00  0.00    -0.274 OA
HETATM   23  H   UNK N   1     162.645 155.903 159.560  0.00  0.00     0.162 HD
ENDBRANCH  18  19
ENDBRANCH  16  18
ENDBRANCH   1  13
BRANCH   6  24
HETATM   24  O   UNK N   1     165.776 153.604 155.408  0.00  0.00    -0.389 OA
HETATM   25  H   UNK N   1     165.812 152.679 155.119  0.00  0.00     0.210 HD
ENDBRANCH   6  24
TORSDOF 4
ENDMDL
MODEL 8
REMARK VINA RESULT:      -5.8      2.841      4.982
REMARK  4 active torsions:
REMARK  status: ('A' for Active; 'I' for Inactive)
REMARK       I    between atoms: C_2  and  N_4 
REMARK    1  A    between atoms: N_4  and  C_5 
REMARK    2  A    between atoms: C_5  and  C_6 
REMARK    3  A    between atoms: C_9  and  C_10 
REMARK       I    between atoms: C_10  and  N_12 
REMARK    4  A    between atoms: C_15  and  O_16 
ROOT
HETATM    1  C   UNK N   1     166.005 156.660 154.165  0.00  0.00     0.260 C 
HETATM    2  O   UNK N   1     166.565 157.741 154.301  0.00  0.00    -0.267 OA
HETATM    3  N   UNK N   1     164.673 156.553 154.462  0.00  0.00    -0.347 N 
HETATM    4  C   UNK N   1     163.949 155.304 154.339  0.00  0.00     0.129 C 
HETATM    5  C   UNK N   1     163.295 154.910 155.672  0.00  0.00     0.058 C 
HETATM    6  C   UNK N   1     163.671 155.851 156.824  0.00  0.00     0.064 C 
HETATM    7  C   UNK N   1     162.849 155.436 158.053  0.00  0.00     0.038 C 
HETATM    8  C   UNK N   1     162.334 156.637 158.839  0.00  0.00     0.003 C 
HETATM    9  C   UNK N   1     161.410 157.485 157.955  0.00  0.00     0.001 C 
HETATM   10  C   UNK N   1     161.935 157.689 156.522  0.00  0.00     0.009 C 
HETATM   11  C   UNK N   1     163.416 157.333 156.414  0.00  0.00     0.038 C 
HETATM   12  C   UNK N   1     163.955 157.682 155.014  0.00  0.00     0.133 C 
ENDROOT
BRANCH   1  13
HETATM   13  C   UNK N   1     166.821 155.506 153.699  0.00  0.00     0.073 A 
HETATM   14  C   UNK N   1     167.072 155.100 152.379  0.00  0.00     0.026 A 
HETATM   15  C   UNK N   1     167.895 153.941 152.290  0.00  0.00     0.018 A 
HETATM   16  C   UNK N   1     168.267 153.446 153.541  0.00  0.00     0.001 A 
HETATM   17  S   UNK N   1     167.599 154.427 154.690  0.00  0.00    -0.088 SA
BRANCH  16  18
HETATM   18  C   UNK N   1     169.155 152.283 153.793  0.00  0.00     0.168 C 
BRANCH  18  19
HETATM   19  N   UNK N   1     168.348 151.094 153.901  0.00  0.00    -0.357 N 
HETATM   20  C   UNK N   1     168.125 150.479 155.084  0.00  0.00     0.213 C 
HETATM   21  C   UNK N   1     167.324 149.223 155.117  0.00  0.00     0.117 C 
HETATM   22  O   UNK N   1     168.572 150.940 156.123  0.00  0.00    -0.274 OA
HETATM   23  H   UNK N   1     167.945 150.717 153.085  0.00  0.00     0.162 HD
ENDBRANCH  18  19
ENDBRANCH  16  18
ENDBRANCH   1  13
BRANCH   6  24
HETATM   24  O   UNK N   1     165.028 155.691 157.122  0.00  0.00    -0.389 OA
HETATM   25  H   UNK N   1     165.145 155.659 158.084  0.00  0.00     0.210 HD
ENDBRANCH   6  24
TORSDOF 4
ENDMDL
MODEL 9
REMARK VINA RESULT:      -5.8      2.084      3.084
REMARK  4 active torsions:
REMARK  status: ('A' for Active; 'I' for Inactive)
REMARK       I    between atoms: C_2  and  N_4 
REMARK    1  A    between atoms: N_4  and  C_5 
REMARK    2  A    between atoms: C_5  and  C_6 
REMARK    3  A    between atoms: C_9  and  C_10 
REMARK       I    between atoms: C_10  and  N_12 
REMARK    4  A    between atoms: C_15  and  O_16 
ROOT
HETATM    1  C   UNK N   1     166.552 153.728 155.988  0.00  0.00     0.260 C 
HETATM    2  O   UNK N   1     165.443 153.221 156.109  0.00  0.00    -0.267 OA
HETATM    3  N   UNK N   1     166.903 154.775 156.798  0.00  0.00    -0.347 N 
HETATM    4  C   UNK N   1     168.191 155.432 156.702  0.00  0.00     0.129 C 
HETATM    5  C   UNK N   1     168.025 156.937 156.444  0.00  0.00     0.058 C 
HETATM    6  C   UNK N   1     166.564 157.350 156.224  0.00  0.00     0.064 C 
HETATM    7  C   UNK N   1     166.522 158.881 156.121  0.00  0.00     0.038 C 
HETATM    8  C   UNK N   1     165.321 159.479 156.846  0.00  0.00     0.003 C 
HETATM    9  C   UNK N   1     165.388 159.138 158.341  0.00  0.00     0.001 C 
HETATM   10  C   UNK N   1     165.796 157.681 158.629  0.00  0.00     0.009 C 
HETATM   11  C   UNK N   1     165.672 156.810 157.382  0.00  0.00     0.038 C 
HETATM   12  C   UNK N   1     165.943 155.333 157.726  0.00  0.00     0.133 C 
ENDROOT
BRANCH   1  13
HETATM   13  C   UNK N   1     167.458 153.183 154.939  0.00  0.00     0.073 A 
HETATM   14  C   UNK N   1     167.751 153.728 153.680  0.00  0.00     0.026 A 
HETATM   15  C   UNK N   1     168.660 152.939 152.919  0.00  0.00     0.018 A 
HETATM   16  C   UNK N   1     169.058 151.780 153.587  0.00  0.00     0.001 A 
HETATM   17  S   UNK N   1     168.306 151.763 155.058  0.00  0.00    -0.088 SA
BRANCH  16  18
HETATM   18  C   UNK N   1     170.030 150.774 153.090  0.00  0.00     0.168 C 
BRANCH  18  19
HETATM   19  N   UNK N   1     169.477 150.126 151.927  0.00  0.00    -0.357 N 
HETATM   20  C   UNK N   1     168.851 148.929 151.997  0.00  0.00     0.213 C 
HETATM   21  C   UNK N   1     168.349 148.291 150.748  0.00  0.00     0.117 C 
HETATM   22  O   UNK N   1     168.694 148.368 153.070  0.00  0.00    -0.274 OA
HETATM   23  H   UNK N   1     169.557 150.570 151.052  0.00  0.00     0.162 HD
ENDBRANCH  18  19
ENDBRANCH  16  18
ENDBRANCH   1  13
BRANCH   6  24
HETATM   24  O   UNK N   1     166.113 156.810 155.016  0.00  0.00    -0.389 OA
HETATM   25  H   UNK N   1     166.506 157.300 154.277  0.00  0.00     0.210 HD
ENDBRANCH   6  24
TORSDOF 4
ENDMDL
