MODEL 1
REMARK VINA RESULT:      -5.8      0.000      0.000
REMARK  6 active torsions:
REMARK  status: ('A' for Active; 'I' for Inactive)
REMARK    1  A    between atoms: C_4  and  C_5 
REMARK    2  A    between atoms: C_5  and  N_6 
REMARK    3  A    between atoms: N_6  and  C_7 
REMARK    4  A    between atoms: N_10  and  C_11 
REMARK    5  A    between atoms: C_11  and  C_12 
REMARK    6  A    between atoms: C_20  and  C_21 
ROOT
HETATM    1  C   UNK N   1     158.216 144.507 162.844  0.00  0.00     0.163 C 
ENDROOT
BRANCH   1   2
HETATM    2  C   UNK N   1     159.439 145.334 162.590  0.00  0.00     0.005 A 
HETATM    3  C   UNK N   1     160.327 145.805 163.541  0.00  0.00     0.120 A 
HETATM    4  N   UNK N   1     161.256 146.532 162.897  0.00  0.00    -0.307 N 
HETATM    5  C   UNK N   1     162.380 147.205 163.520  0.00  0.00     0.177 C 
HETATM    6  N   UNK N   1     161.009 146.557 161.598  0.00  0.00    -0.298 N 
HETATM    7  C   UNK N   1     159.900 145.826 161.373  0.00  0.00     0.069 A 
ATOM      8  HN  UNK N   1     161.561 147.043 160.891  1.00  0.00     0.187 HD
BRANCH   7   9
HETATM    9  C   UNK N   1     159.318 145.636 160.027  0.00  0.00     0.008 A 
HETATM   10  C   UNK N   1     158.749 146.701 159.319  0.00  0.00     0.016 A 
HETATM   11  C   UNK N   1     158.201 146.485 158.054  0.00  0.00     0.018 A 
HETATM   12  C   UNK N   1     158.236 145.202 157.504  0.00  0.00     0.087 A 
HETATM   13  N   UNK N   1     158.796 144.176 158.199  0.00  0.00    -0.374 N 
HETATM   14  C   UNK N   1     159.326 144.365 159.438  0.00  0.00     0.101 A 
ATOM     15  HN  UNK N   1     158.819 143.245 157.783  1.00  0.00     0.164 HD
ENDBRANCH   7   9
ENDBRANCH   1   2
BRANCH   1  16
HETATM   16  N   UNK N   1     157.034 145.334 162.882  0.00  0.00    -0.371 N 
HETATM   17  H   UNK N   1     156.799 145.801 163.717  0.00  0.00     0.161 HD
BRANCH  16  18
HETATM   18  C   UNK N   1     156.209 145.488 161.746  0.00  0.00     0.117 A 
HETATM   19  C   UNK N   1     155.887 144.486 160.852  0.00  0.00     0.068 A 
HETATM   20  C   UNK N   1     155.033 145.103 159.946  0.00  0.00     0.114 A 
HETATM   21  N   UNK N   1     154.888 146.390 160.321  0.00  0.00    -0.297 N 
HETATM   22  N   UNK N   1     155.596 146.632 161.407  0.00  0.00    -0.284 N 
ATOM     23  HN  UNK N   1     155.665 147.524 161.899  1.00  0.00     0.188 HD
BRANCH  21  24
HETATM   24  C   UNK N   1     154.076 147.400 159.659  0.00  0.00     0.186 C 
BRANCH  24  25
HETATM   25  C   UNK N   1     154.797 147.974 158.487  0.00  0.00    -0.039 A 
HETATM   26  C   UNK N   1     154.638 147.430 157.206  0.00  0.00     0.009 A 
HETATM   27  C   UNK N   1     155.324 147.984 156.121  0.00  0.00     0.001 A 
HETATM   28  C   UNK N   1     156.166 149.084 156.313  0.00  0.00     0.000 A 
HETATM   29  C   UNK N   1     156.326 149.627 157.590  0.00  0.00     0.001 A 
HETATM   30  C   UNK N   1     155.645 149.071 158.675  0.00  0.00     0.009 A 
ENDBRANCH  24  25
ENDBRANCH  21  24
ENDBRANCH  16  18
ENDBRANCH   1  16
TORSDOF 6
ENDMDL
MODEL 2
REMARK VINA RESULT:      -5.6     13.440     14.814
REMARK  6 active torsions:
REMARK  status: ('A' for Active; 'I' for Inactive)
REMARK    1  A    between atoms: C_4  and  C_5 
REMARK    2  A    between atoms: C_5  and  N_6 
REMARK    3  A    between atoms: N_6  and  C_7 
REMARK    4  A    between atoms: N_10  and  C_11 
REMARK    5  A    between atoms: C_11  and  C_12 
REMARK    6  A    between atoms: C_20  and  C_21 
ROOT
HETATM    1  C   UNK N   1     168.545 150.501 154.669  0.00  0.00     0.163 C 
ENDROOT
BRANCH   1   2
HETATM    2  C   UNK N   1     169.236 149.177 154.540  0.00  0.00     0.005 A 
HETATM    3  C   UNK N   1     169.698 148.386 155.577  0.00  0.00     0.120 A 
HETATM    4  N   UNK N   1     170.285 147.308 155.027  0.00  0.00    -0.307 N 
HETATM    5  C   UNK N   1     170.901 146.219 155.760  0.00  0.00     0.177 C 
HETATM    6  N   UNK N   1     170.229 147.371 153.707  0.00  0.00    -0.298 N 
HETATM    7  C   UNK N   1     169.586 148.507 153.373  0.00  0.00     0.069 A 
ATOM      8  HN  UNK N   1     170.606 146.681 153.057  1.00  0.00     0.187 HD
BRANCH   7   9
HETATM    9  C   UNK N   1     169.344 148.915 151.972  0.00  0.00     0.008 A 
HETATM   10  C   UNK N   1     170.094 149.928 151.365  0.00  0.00     0.016 A 
HETATM   11  C   UNK N   1     169.834 150.293 150.044  0.00  0.00     0.018 A 
HETATM   12  C   UNK N   1     168.827 149.633 149.338  0.00  0.00     0.087 A 
HETATM   13  N   UNK N   1     168.106 148.647 149.937  0.00  0.00    -0.374 N 
HETATM   14  C   UNK N   1     168.339 148.283 151.227  0.00  0.00     0.101 A 
ATOM     15  HN  UNK N   1     167.377 148.170 149.407  1.00  0.00     0.164 HD
ENDBRANCH   7   9
ENDBRANCH   1   2
BRANCH   1  16
HETATM   16  N   UNK N   1     169.498 151.584 154.635  0.00  0.00    -0.371 N 
HETATM   17  H   UNK N   1     170.386 151.457 155.043  0.00  0.00     0.161 HD
BRANCH  16  18
HETATM   18  C   UNK N   1     169.185 152.820 154.029  0.00  0.00     0.117 A 
HETATM   19  C   UNK N   1     168.415 152.979 152.894  0.00  0.00     0.068 A 
HETATM   20  C   UNK N   1     168.357 154.355 152.714  0.00  0.00     0.114 A 
HETATM   21  N   UNK N   1     169.065 154.935 153.706  0.00  0.00    -0.297 N 
HETATM   22  N   UNK N   1     169.569 154.014 154.504  0.00  0.00    -0.284 N 
ATOM     23  HN  UNK N   1     170.146 154.179 155.330  1.00  0.00     0.188 HD
BRANCH  21  24
HETATM   24  C   UNK N   1     169.266 156.361 153.909  0.00  0.00     0.186 C 
BRANCH  24  25
HETATM   25  C   UNK N   1     168.031 156.998 154.450  0.00  0.00    -0.039 A 
HETATM   26  C   UNK N   1     167.148 157.687 153.608  0.00  0.00     0.009 A 
HETATM   27  C   UNK N   1     165.996 158.277 154.136  0.00  0.00     0.001 A 
HETATM   28  C   UNK N   1     165.722 158.177 155.504  0.00  0.00     0.000 A 
HETATM   29  C   UNK N   1     166.603 157.490 156.344  0.00  0.00     0.001 A 
HETATM   30  C   UNK N   1     167.757 156.905 155.818  0.00  0.00     0.009 A 
ENDBRANCH  24  25
ENDBRANCH  21  24
ENDBRANCH  16  18
ENDBRANCH   1  16
TORSDOF 6
ENDMDL
MODEL 3
REMARK VINA RESULT:      -5.6     11.827     14.013
REMARK  6 active torsions:
REMARK  status: ('A' for Active; 'I' for Inactive)
REMARK    1  A    between atoms: C_4  and  C_5 
REMARK    2  A    between atoms: C_5  and  N_6 
REMARK    3  A    between atoms: N_6  and  C_7 
REMARK    4  A    between atoms: N_10  and  C_11 
REMARK    5  A    between atoms: C_11  and  C_12 
REMARK    6  A    between atoms: C_20  and  C_21 
ROOT
HETATM    1  C   UNK N   1     169.542 154.089 153.561  0.00  0.00     0.163 C 
ENDROOT
BRANCH   1   2
HETATM    2  C   UNK N   1     169.012 152.783 154.068  0.00  0.00     0.005 A 
HETATM    3  C   UNK N   1     169.179 151.543 153.477  0.00  0.00     0.120 A 
HETATM    4  N   UNK N   1     168.516 150.647 154.230  0.00  0.00    -0.307 N 
HETATM    5  C   UNK N   1     168.436 149.223 153.970  0.00  0.00     0.177 C 
HETATM    6  N   UNK N   1     167.933 151.244 155.256  0.00  0.00    -0.298 N 
HETATM    7  C   UNK N   1     168.221 152.559 155.190  0.00  0.00     0.069 A 
ATOM      8  HN  UNK N   1     167.366 150.790 155.972  1.00  0.00     0.187 HD
BRANCH   7   9
HETATM    9  C   UNK N   1     167.729 153.544 156.177  0.00  0.00     0.008 A 
HETATM   10  C   UNK N   1     166.429 154.057 156.112  0.00  0.00     0.016 A 
HETATM   11  C   UNK N   1     165.998 154.991 157.055  0.00  0.00     0.018 A 
HETATM   12  C   UNK N   1     166.875 155.398 158.062  0.00  0.00     0.087 A 
HETATM   13  N   UNK N   1     168.135 154.889 158.118  0.00  0.00    -0.374 N 
HETATM   14  C   UNK N   1     168.575 153.985 157.202  0.00  0.00     0.101 A 
ATOM     15  HN  UNK N   1     168.762 155.192 158.863  1.00  0.00     0.164 HD
ENDBRANCH   7   9
ENDBRANCH   1   2
BRANCH   1  16
HETATM   16  N   UNK N   1     168.576 154.741 152.710  0.00  0.00    -0.371 N 
HETATM   17  H   UNK N   1     168.507 154.471 151.765  0.00  0.00     0.161 HD
BRANCH  16  18
HETATM   18  C   UNK N   1     167.728 155.757 153.204  0.00  0.00     0.117 A 
HETATM   19  C   UNK N   1     168.127 156.813 153.999  0.00  0.00     0.068 A 
HETATM   20  C   UNK N   1     166.967 157.552 154.188  0.00  0.00     0.114 A 
HETATM   21  N   UNK N   1     165.966 156.933 153.527  0.00  0.00    -0.297 N 
HETATM   22  N   UNK N   1     166.418 155.847 152.930  0.00  0.00    -0.284 N 
ATOM     23  HN  UNK N   1     165.872 155.195 152.365  1.00  0.00     0.188 HD
BRANCH  21  24
HETATM   24  C   UNK N   1     164.579 157.364 153.450  0.00  0.00     0.186 C 
BRANCH  24  25
HETATM   25  C   UNK N   1     163.776 156.763 154.553  0.00  0.00    -0.039 A 
HETATM   26  C   UNK N   1     163.375 155.421 154.503  0.00  0.00     0.009 A 
HETATM   27  C   UNK N   1     162.622 154.878 155.548  0.00  0.00     0.001 A 
HETATM   28  C   UNK N   1     162.271 155.672 156.645  0.00  0.00     0.000 A 
HETATM   29  C   UNK N   1     162.671 157.010 156.695  0.00  0.00     0.001 A 
HETATM   30  C   UNK N   1     163.419 157.554 155.649  0.00  0.00     0.009 A 
ENDBRANCH  24  25
ENDBRANCH  21  24
ENDBRANCH  16  18
ENDBRANCH   1  16
TORSDOF 6
ENDMDL
MODEL 4
REMARK VINA RESULT:      -5.5     12.797     14.857
REMARK  6 active torsions:
REMARK  status: ('A' for Active; 'I' for Inactive)
REMARK    1  A    between atoms: C_4  and  C_5 
REMARK    2  A    between atoms: C_5  and  N_6 
REMARK    3  A    between atoms: N_6  and  C_7 
REMARK    4  A    between atoms: N_10  and  C_11 
REMARK    5  A    between atoms: C_11  and  C_12 
REMARK    6  A    between atoms: C_20  and  C_21 
ROOT
HETATM    1  C   UNK N   1     170.719 150.917 153.461  0.00  0.00     0.163 C 
ENDROOT
BRANCH   1   2
HETATM    2  C   UNK N   1     169.905 150.040 152.558  0.00  0.00     0.005 A 
HETATM    3  C   UNK N   1     169.794 150.153 151.183  0.00  0.00     0.120 A 
HETATM    4  N   UNK N   1     168.941 149.199 150.771  0.00  0.00    -0.307 N 
HETATM    5  C   UNK N   1     168.545 148.961 149.396  0.00  0.00     0.177 C 
HETATM    6  N   UNK N   1     168.499 148.495 151.799  0.00  0.00    -0.298 N 
HETATM    7  C   UNK N   1     169.075 148.983 152.915  0.00  0.00     0.069 A 
ATOM      8  HN  UNK N   1     167.838 147.719 151.756  1.00  0.00     0.187 HD
BRANCH   7   9
HETATM    9  C   UNK N   1     168.808 148.441 154.265  0.00  0.00     0.008 A 
HETATM   10  C   UNK N   1     167.676 148.820 154.995  0.00  0.00     0.016 A 
HETATM   11  C   UNK N   1     167.459 148.295 156.269  0.00  0.00     0.018 A 
HETATM   12  C   UNK N   1     168.376 147.386 156.799  0.00  0.00     0.087 A 
HETATM   13  N   UNK N   1     169.471 147.022 156.079  0.00  0.00    -0.374 N 
HETATM   14  C   UNK N   1     169.705 147.530 154.839  0.00  0.00     0.101 A 
ATOM     15  HN  UNK N   1     170.130 146.353 156.478  1.00  0.00     0.164 HD
ENDBRANCH   7   9
ENDBRANCH   1   2
BRANCH   1  16
HETATM   16  N   UNK N   1     169.867 151.737 154.287  0.00  0.00    -0.371 N 
HETATM   17  H   UNK N   1     169.653 151.441 155.202  0.00  0.00     0.161 HD
BRANCH  16  18
HETATM   18  C   UNK N   1     169.335 152.956 153.811  0.00  0.00     0.117 A 
HETATM   19  C   UNK N   1     168.294 153.075 152.912  0.00  0.00     0.068 A 
HETATM   20  C   UNK N   1     168.109 154.446 152.788  0.00  0.00     0.114 A 
HETATM   21  N   UNK N   1     169.008 155.061 153.583  0.00  0.00    -0.297 N 
HETATM   22  N   UNK N   1     169.754 154.168 154.205  0.00  0.00    -0.284 N 
ATOM     23  HN  UNK N   1     170.509 154.363 154.863  1.00  0.00     0.188 HD
BRANCH  21  24
HETATM   24  C   UNK N   1     169.167 156.495 153.766  0.00  0.00     0.186 C 
BRANCH  24  25
HETATM   25  C   UNK N   1     167.973 157.078 154.445  0.00  0.00    -0.039 A 
HETATM   26  C   UNK N   1     167.764 156.893 155.818  0.00  0.00     0.009 A 
HETATM   27  C   UNK N   1     166.638 157.448 156.433  0.00  0.00     0.001 A 
HETATM   28  C   UNK N   1     165.723 158.191 155.681  0.00  0.00     0.000 A 
HETATM   29  C   UNK N   1     165.932 158.376 154.311  0.00  0.00     0.001 A 
HETATM   30  C   UNK N   1     167.053 157.817 153.695  0.00  0.00     0.009 A 
ENDBRANCH  24  25
ENDBRANCH  21  24
ENDBRANCH  16  18
ENDBRANCH   1  16
TORSDOF 6
ENDMDL
MODEL 5
REMARK VINA RESULT:      -5.5      1.703      4.092
REMARK  6 active torsions:
REMARK  status: ('A' for Active; 'I' for Inactive)
REMARK    1  A    between atoms: C_4  and  C_5 
REMARK    2  A    between atoms: C_5  and  N_6 
REMARK    3  A    between atoms: N_6  and  C_7 
REMARK    4  A    between atoms: N_10  and  C_11 
REMARK    5  A    between atoms: C_11  and  C_12 
REMARK    6  A    between atoms: C_20  and  C_21 
ROOT
HETATM    1  C   UNK N   1     157.502 143.963 159.491  0.00  0.00     0.163 C 
ENDROOT
BRANCH   1   2
HETATM    2  C   UNK N   1     158.057 145.120 160.264  0.00  0.00     0.005 A 
HETATM    3  C   UNK N   1     159.377 145.300 160.640  0.00  0.00     0.120 A 
HETATM    4  N   UNK N   1     159.440 146.441 161.347  0.00  0.00    -0.307 N 
HETATM    5  C   UNK N   1     160.642 147.007 161.929  0.00  0.00     0.177 C 
HETATM    6  N   UNK N   1     158.241 146.991 161.450  0.00  0.00    -0.298 N 
HETATM    7  C   UNK N   1     157.367 146.206 160.790  0.00  0.00     0.069 A 
ATOM      8  HN  UNK N   1     158.018 147.857 161.940  1.00  0.00     0.187 HD
BRANCH   7   9
HETATM    9  C   UNK N   1     155.922 146.507 160.698  0.00  0.00     0.008 A 
HETATM   10  C   UNK N   1     155.361 147.049 159.537  0.00  0.00     0.016 A 
HETATM   11  C   UNK N   1     153.994 147.328 159.486  0.00  0.00     0.018 A 
HETATM   12  C   UNK N   1     153.199 147.054 160.600  0.00  0.00     0.087 A 
HETATM   13  N   UNK N   1     153.755 146.524 161.723  0.00  0.00    -0.374 N 
HETATM   14  C   UNK N   1     155.087 146.254 161.794  0.00  0.00     0.101 A 
ATOM     15  HN  UNK N   1     153.161 146.324 162.527  1.00  0.00     0.164 HD
ENDBRANCH   7   9
ENDBRANCH   1   2
BRANCH   1  16
HETATM   16  N   UNK N   1     158.289 143.707 158.309  0.00  0.00    -0.371 N 
HETATM   17  H   UNK N   1     159.052 143.086 158.363  0.00  0.00     0.161 HD
BRANCH  16  18
HETATM   18  C   UNK N   1     157.989 144.329 157.077  0.00  0.00     0.117 A 
HETATM   19  C   UNK N   1     157.549 143.678 155.941  0.00  0.00     0.068 A 
HETATM   20  C   UNK N   1     157.354 144.698 155.020  0.00  0.00     0.114 A 
HETATM   21  N   UNK N   1     157.672 145.865 155.618  0.00  0.00    -0.297 N 
HETATM   22  N   UNK N   1     158.057 145.651 156.861  0.00  0.00    -0.284 N 
ATOM     23  HN  UNK N   1     158.353 146.359 157.534  1.00  0.00     0.188 HD
BRANCH  21  24
HETATM   24  C   UNK N   1     157.610 147.191 155.022  0.00  0.00     0.186 C 
BRANCH  24  25
HETATM   25  C   UNK N   1     156.535 148.007 155.657  0.00  0.00    -0.039 A 
HETATM   26  C   UNK N   1     155.183 147.738 155.406  0.00  0.00     0.009 A 
HETATM   27  C   UNK N   1     154.192 148.517 156.012  0.00  0.00     0.001 A 
HETATM   28  C   UNK N   1     154.550 149.561 156.871  0.00  0.00     0.000 A 
HETATM   29  C   UNK N   1     155.898 149.829 157.121  0.00  0.00     0.001 A 
HETATM   30  C   UNK N   1     156.888 149.056 156.512  0.00  0.00     0.009 A 
ENDBRANCH  24  25
ENDBRANCH  21  24
ENDBRANCH  16  18
ENDBRANCH   1  16
TORSDOF 6
ENDMDL
MODEL 6
REMARK VINA RESULT:      -5.3      1.503      2.456
REMARK  6 active torsions:
REMARK  status: ('A' for Active; 'I' for Inactive)
REMARK    1  A    between atoms: C_4  and  C_5 
REMARK    2  A    between atoms: C_5  and  N_6 
REMARK    3  A    between atoms: N_6  and  C_7 
REMARK    4  A    between atoms: N_10  and  C_11 
REMARK    5  A    between atoms: C_11  and  C_12 
REMARK    6  A    between atoms: C_20  and  C_21 
ROOT
HETATM    1  C   UNK N   1     156.667 145.334 161.058  0.00  0.00     0.163 C 
ENDROOT
BRANCH   1   2
HETATM    2  C   UNK N   1     158.109 145.710 160.904  0.00  0.00     0.005 A 
HETATM    3  C   UNK N   1     158.875 146.421 161.811  0.00  0.00     0.120 A 
HETATM    4  N   UNK N   1     160.097 146.572 161.271  0.00  0.00    -0.307 N 
HETATM    5  C   UNK N   1     161.214 147.258 161.893  0.00  0.00     0.177 C 
HETATM    6  N   UNK N   1     160.150 146.009 160.076  0.00  0.00    -0.298 N 
HETATM    7  C   UNK N   1     158.945 145.464 159.820  0.00  0.00     0.069 A 
ATOM      8  HN  UNK N   1     160.961 145.988 159.457  1.00  0.00     0.187 HD
BRANCH   7   9
HETATM    9  C   UNK N   1     158.632 144.750 158.563  0.00  0.00     0.008 A 
HETATM   10  C   UNK N   1     157.964 145.383 157.509  0.00  0.00     0.016 A 
HETATM   11  C   UNK N   1     157.677 144.677 156.340  0.00  0.00     0.018 A 
HETATM   12  C   UNK N   1     158.071 143.342 156.234  0.00  0.00     0.087 A 
HETATM   13  N   UNK N   1     158.723 142.738 157.263  0.00  0.00    -0.374 N 
HETATM   14  C   UNK N   1     159.003 143.407 158.415  0.00  0.00     0.101 A 
ATOM     15  HN  UNK N   1     159.009 141.764 157.169  1.00  0.00     0.164 HD
ENDBRANCH   7   9
ENDBRANCH   1   2
BRANCH   1  16
HETATM   16  N   UNK N   1     155.864 146.492 161.373  0.00  0.00    -0.371 N 
HETATM   17  H   UNK N   1     155.761 146.764 162.314  0.00  0.00     0.161 HD
BRANCH  16  18
HETATM   18  C   UNK N   1     155.227 147.242 160.361  0.00  0.00     0.117 A 
HETATM   19  C   UNK N   1     153.861 147.372 160.205  0.00  0.00     0.068 A 
HETATM   20  C   UNK N   1     153.724 148.224 159.117  0.00  0.00     0.114 A 
HETATM   21  N   UNK N   1     154.960 148.552 158.687  0.00  0.00    -0.297 N 
HETATM   22  N   UNK N   1     155.874 147.962 159.433  0.00  0.00    -0.284 N 
ATOM     23  HN  UNK N   1     156.886 148.039 159.324  1.00  0.00     0.188 HD
BRANCH  21  24
HETATM   24  C   UNK N   1     155.287 149.428 157.572  0.00  0.00     0.186 C 
BRANCH  24  25
HETATM   25  C   UNK N   1     155.714 148.635 156.383  0.00  0.00    -0.039 A 
HETATM   26  C   UNK N   1     154.824 147.763 155.742  0.00  0.00     0.009 A 
HETATM   27  C   UNK N   1     155.246 147.029 154.629  0.00  0.00     0.001 A 
HETATM   28  C   UNK N   1     156.554 147.168 154.153  0.00  0.00     0.000 A 
HETATM   29  C   UNK N   1     157.442 148.037 154.793  0.00  0.00     0.001 A 
HETATM   30  C   UNK N   1     157.022 148.766 155.908  0.00  0.00     0.009 A 
ENDBRANCH  24  25
ENDBRANCH  21  24
ENDBRANCH  16  18
ENDBRANCH   1  16
TORSDOF 6
ENDMDL
MODEL 7
REMARK VINA RESULT:      -5.3      2.014      4.292
REMARK  6 active torsions:
REMARK  status: ('A' for Active; 'I' for Inactive)
REMARK    1  A    between atoms: C_4  and  C_5 
REMARK    2  A    between atoms: C_5  and  N_6 
REMARK    3  A    between atoms: N_6  and  C_7 
REMARK    4  A    between atoms: N_10  and  C_11 
REMARK    5  A    between atoms: C_11  and  C_12 
REMARK    6  A    between atoms: C_20  and  C_21 
ROOT
HETATM    1  C   UNK N   1     159.405 146.251 161.324  0.00  0.00     0.163 C 
ENDROOT
BRANCH   1   2
HETATM    2  C   UNK N   1     159.362 145.495 162.618  0.00  0.00     0.005 A 
HETATM    3  C   UNK N   1     158.490 144.471 162.943  0.00  0.00     0.120 A 
HETATM    4  N   UNK N   1     158.763 144.098 164.206  0.00  0.00    -0.307 N 
HETATM    5  C   UNK N   1     158.083 143.048 164.940  0.00  0.00     0.177 C 
HETATM    6  N   UNK N   1     159.748 144.828 164.703  0.00  0.00    -0.298 N 
HETATM    7  C   UNK N   1     160.143 145.695 163.751  0.00  0.00     0.069 A 
ATOM      8  HN  UNK N   1     160.140 144.748 165.641  1.00  0.00     0.187 HD
BRANCH   7   9
HETATM    9  C   UNK N   1     161.228 146.679 163.955  0.00  0.00     0.008 A 
HETATM   10  C   UNK N   1     161.104 147.722 164.881  0.00  0.00     0.016 A 
HETATM   11  C   UNK N   1     162.144 148.638 165.043  0.00  0.00     0.018 A 
HETATM   12  C   UNK N   1     163.305 148.496 164.281  0.00  0.00     0.087 A 
HETATM   13  N   UNK N   1     163.416 147.477 163.387  0.00  0.00    -0.374 N 
HETATM   14  C   UNK N   1     162.409 146.579 163.208  0.00  0.00     0.101 A 
ATOM     15  HN  UNK N   1     164.272 147.383 162.841  1.00  0.00     0.164 HD
ENDBRANCH   7   9
ENDBRANCH   1   2
BRANCH   1  16
HETATM   16  N   UNK N   1     158.337 147.219 161.257  0.00  0.00    -0.371 N 
HETATM   17  H   UNK N   1     158.286 147.928 161.939  0.00  0.00     0.161 HD
BRANCH  16  18
HETATM   18  C   UNK N   1     157.364 147.170 160.235  0.00  0.00     0.117 A 
HETATM   19  C   UNK N   1     156.511 146.111 159.995  0.00  0.00     0.068 A 
HETATM   20  C   UNK N   1     155.727 146.543 158.933  0.00  0.00     0.114 A 
HETATM   21  N   UNK N   1     156.128 147.786 158.597  0.00  0.00    -0.297 N 
HETATM   22  N   UNK N   1     157.118 148.173 159.379  0.00  0.00    -0.284 N 
ATOM     23  HN  UNK N   1     157.606 149.068 159.339  1.00  0.00     0.188 HD
BRANCH  21  24
HETATM   24  C   UNK N   1     155.577 148.620 157.540  0.00  0.00     0.186 C 
BRANCH  24  25
HETATM   25  C   UNK N   1     155.922 148.070 156.198  0.00  0.00    -0.039 A 
HETATM   26  C   UNK N   1     154.982 147.348 155.451  0.00  0.00     0.009 A 
HETATM   27  C   UNK N   1     155.328 146.842 154.194  0.00  0.00     0.001 A 
HETATM   28  C   UNK N   1     156.610 147.059 153.680  0.00  0.00     0.000 A 
HETATM   29  C   UNK N   1     157.548 147.779 154.425  0.00  0.00     0.001 A 
HETATM   30  C   UNK N   1     157.205 148.281 155.682  0.00  0.00     0.009 A 
ENDBRANCH  24  25
ENDBRANCH  21  24
ENDBRANCH  16  18
ENDBRANCH   1  16
TORSDOF 6
ENDMDL
MODEL 8
REMARK VINA RESULT:      -5.3      2.205      3.875
REMARK  6 active torsions:
REMARK  status: ('A' for Active; 'I' for Inactive)
REMARK    1  A    between atoms: C_4  and  C_5 
REMARK    2  A    between atoms: C_5  and  N_6 
REMARK    3  A    between atoms: N_6  and  C_7 
REMARK    4  A    between atoms: N_10  and  C_11 
REMARK    5  A    between atoms: C_11  and  C_12 
REMARK    6  A    between atoms: C_20  and  C_21 
ROOT
HETATM    1  C   UNK N   1     154.392 146.510 162.387  0.00  0.00     0.163 C 
ENDROOT
BRANCH   1   2
HETATM    2  C   UNK N   1     155.250 145.301 162.607  0.00  0.00     0.005 A 
HETATM    3  C   UNK N   1     155.069 144.329 163.575  0.00  0.00     0.120 A 
HETATM    4  N   UNK N   1     156.077 143.448 163.451  0.00  0.00    -0.307 N 
HETATM    5  C   UNK N   1     156.267 142.266 164.269  0.00  0.00     0.177 C 
HETATM    6  N   UNK N   1     156.889 143.805 162.470  0.00  0.00    -0.298 N 
HETATM    7  C   UNK N   1     156.408 144.940 161.926  0.00  0.00     0.069 A 
ATOM      8  HN  UNK N   1     157.730 143.309 162.176  1.00  0.00     0.187 HD
BRANCH   7   9
HETATM    9  C   UNK N   1     157.066 145.637 160.800  0.00  0.00     0.008 A 
HETATM   10  C   UNK N   1     156.607 145.501 159.486  0.00  0.00     0.016 A 
HETATM   11  C   UNK N   1     157.256 146.167 158.446  0.00  0.00     0.018 A 
HETATM   12  C   UNK N   1     158.359 146.973 158.735  0.00  0.00     0.087 A 
HETATM   13  N   UNK N   1     158.794 147.102 160.017  0.00  0.00    -0.374 N 
HETATM   14  C   UNK N   1     158.179 146.453 161.042  0.00  0.00     0.101 A 
ATOM     15  HN  UNK N   1     159.597 147.699 160.213  1.00  0.00     0.164 HD
ENDBRANCH   7   9
ENDBRANCH   1   2
BRANCH   1  16
HETATM   16  N   UNK N   1     153.502 146.313 161.268  0.00  0.00    -0.371 N 
HETATM   17  H   UNK N   1     152.988 145.475 161.204  0.00  0.00     0.161 HD
BRANCH  16  18
HETATM   18  C   UNK N   1     153.354 147.296 160.265  0.00  0.00     0.117 A 
HETATM   19  C   UNK N   1     153.201 148.649 160.490  0.00  0.00     0.068 A 
HETATM   20  C   UNK N   1     153.137 149.199 159.217  0.00  0.00     0.114 A 
HETATM   21  N   UNK N   1     153.248 148.195 158.323  0.00  0.00    -0.297 N 
HETATM   22  N   UNK N   1     153.379 147.041 158.948  0.00  0.00    -0.284 N 
ATOM     23  HN  UNK N   1     153.480 146.124 158.511  1.00  0.00     0.188 HD
BRANCH  21  24
HETATM   24  C   UNK N   1     153.236 148.318 156.874  0.00  0.00     0.186 C 
BRANCH  24  25
HETATM   25  C   UNK N   1     154.624 148.279 156.328  0.00  0.00    -0.039 A 
HETATM   26  C   UNK N   1     155.590 149.203 156.749  0.00  0.00     0.009 A 
HETATM   27  C   UNK N   1     156.884 149.149 156.224  0.00  0.00     0.001 A 
HETATM   28  C   UNK N   1     157.217 148.170 155.282  0.00  0.00     0.000 A 
HETATM   29  C   UNK N   1     156.254 147.248 154.861  0.00  0.00     0.001 A 
HETATM   30  C   UNK N   1     154.959 147.306 155.382  0.00  0.00     0.009 A 
ENDBRANCH  24  25
ENDBRANCH  21  24
ENDBRANCH  16  18
ENDBRANCH   1  16
TORSDOF 6
ENDMDL
MODEL 9
REMARK VINA RESULT:      -5.2      1.557      4.410
REMARK  6 active torsions:
REMARK  status: ('A' for Active; 'I' for Inactive)
REMARK    1  A    between atoms: C_4  and  C_5 
REMARK    2  A    between atoms: C_5  and  N_6 
REMARK    3  A    between atoms: N_6  and  C_7 
REMARK    4  A    between atoms: N_10  and  C_11 
REMARK    5  A    between atoms: C_11  and  C_12 
REMARK    6  A    between atoms: C_20  and  C_21 
ROOT
HETATM    1  C   UNK N   1     158.987 143.753 159.753  0.00  0.00     0.163 C 
ENDROOT
BRANCH   1   2
HETATM    2  C   UNK N   1     158.097 144.801 160.349  0.00  0.00     0.005 A 
HETATM    3  C   UNK N   1     156.714 144.823 160.314  0.00  0.00     0.120 A 
HETATM    4  N   UNK N   1     156.316 145.951 160.929  0.00  0.00    -0.307 N 
HETATM    5  C   UNK N   1     154.939 146.366 161.118  0.00  0.00     0.177 C 
HETATM    6  N   UNK N   1     157.360 146.648 161.344  0.00  0.00    -0.298 N 
HETATM    7  C   UNK N   1     158.474 145.967 161.007  0.00  0.00     0.069 A 
ATOM      8  HN  UNK N   1     157.330 147.542 161.833  1.00  0.00     0.187 HD
BRANCH   7   9
HETATM    9  C   UNK N   1     159.838 146.451 161.308  0.00  0.00     0.008 A 
HETATM   10  C   UNK N   1     160.473 146.144 162.516  0.00  0.00     0.016 A 
HETATM   11  C   UNK N   1     161.758 146.624 162.772  0.00  0.00     0.018 A 
HETATM   12  C   UNK N   1     162.400 147.403 161.808  0.00  0.00     0.087 A 
HETATM   13  N   UNK N   1     161.775 147.692 160.636  0.00  0.00    -0.374 N 
HETATM   14  C   UNK N   1     160.518 147.241 160.373  0.00  0.00     0.101 A 
ATOM     15  HN  UNK N   1     162.259 148.259 159.939  1.00  0.00     0.164 HD
ENDBRANCH   7   9
ENDBRANCH   1   2
BRANCH   1  16
HETATM   16  N   UNK N   1     159.664 144.257 158.583  0.00  0.00    -0.371 N 
HETATM   17  H   UNK N   1     160.638 144.398 158.613  0.00  0.00     0.161 HD
BRANCH  16  18
HETATM   18  C   UNK N   1     158.958 144.549 157.395  0.00  0.00     0.117 A 
HETATM   19  C   UNK N   1     158.314 143.622 156.600  0.00  0.00     0.068 A 
HETATM   20  C   UNK N   1     157.742 144.382 155.588  0.00  0.00     0.114 A 
HETATM   21  N   UNK N   1     158.056 145.675 155.810  0.00  0.00    -0.297 N 
HETATM   22  N   UNK N   1     158.792 145.785 156.900  0.00  0.00    -0.284 N 
ATOM     23  HN  UNK N   1     159.166 146.650 157.293  1.00  0.00     0.188 HD
BRANCH  21  24
HETATM   24  C   UNK N   1     157.661 146.816 154.999  0.00  0.00     0.186 C 
BRANCH  24  25
HETATM   25  C   UNK N   1     156.639 147.640 155.708  0.00  0.00    -0.039 A 
HETATM   26  C   UNK N   1     155.298 147.239 155.757  0.00  0.00     0.009 A 
HETATM   27  C   UNK N   1     154.357 148.028 156.426  0.00  0.00     0.001 A 
HETATM   28  C   UNK N   1     154.755 149.215 157.050  0.00  0.00     0.000 A 
HETATM   29  C   UNK N   1     156.093 149.615 157.001  0.00  0.00     0.001 A 
HETATM   30  C   UNK N   1     157.032 148.831 156.328  0.00  0.00     0.009 A 
ENDBRANCH  24  25
ENDBRANCH  21  24
ENDBRANCH  16  18
ENDBRANCH   1  16
TORSDOF 6
ENDMDL
