MODEL 1
REMARK VINA RESULT:      -6.3      0.000      0.000
REMARK  6 active torsions:
REMARK  status: ('A' for Active; 'I' for Inactive)
REMARK    1  A    between atoms: C_7  and  C_8 
REMARK    2  A    between atoms: C_11  and  N_12 
REMARK    3  A    between atoms: N_12  and  C_13 
REMARK    4  A    between atoms: C_13  and  C_14 
REMARK    5  A    between atoms: C_18  and  O_19 
REMARK    6  A    between atoms: O_19  and  C_20 
ROOT
HETATM    1  C   UNK N   1     167.053 155.584 152.615  0.00  0.00     0.017 A 
HETATM    2  C   UNK N   1     168.006 156.437 153.184  0.00  0.00     0.018 A 
HETATM    3  C   UNK N   1     167.598 157.569 153.894  0.00  0.00     0.030 A 
HETATM    4  C   UNK N   1     166.232 157.861 154.038  0.00  0.00     0.028 A 
HETATM    5  C   UNK N   1     165.282 157.009 153.466  0.00  0.00     0.030 A 
HETATM    6  C   UNK N   1     165.690 155.873 152.759  0.00  0.00     0.018 A 
ENDROOT
BRANCH   4   7
HETATM    7  N   UNK N   1     165.802 159.006 154.754  0.00  0.00    -0.386 N 
HETATM    8  H   UNK N   1     165.771 159.876 154.293  0.00  0.00     0.160 HD
BRANCH   7   9
HETATM    9  C   UNK N   1     165.409 158.930 156.141  0.00  0.00     0.158 C 
BRANCH   9  10
HETATM   10  C   UNK N   1     166.539 159.332 157.023  0.00  0.00    -0.038 A 
HETATM   11  C   UNK N   1     166.805 160.685 157.252  0.00  0.00     0.009 A 
HETATM   12  C   UNK N   1     167.880 161.059 158.061  0.00  0.00     0.003 A 
HETATM   13  C   UNK N   1     168.689 160.081 158.643  0.00  0.00     0.037 A 
HETATM   14  C   UNK N   1     168.433 158.716 158.412  0.00  0.00     0.069 A 
HETATM   15  C   UNK N   1     167.356 158.351 157.597  0.00  0.00     0.045 A 
BRANCH  14  16
HETATM   16  O   UNK N   1     169.207 157.744 158.958  0.00  0.00    -0.347 OA
BRANCH  16  17
HETATM   17  C   UNK N   1     169.101 157.301 160.265  0.00  0.00     0.120 C 
HETATM   18  C   UNK N   1     168.411 155.954 160.280  0.00  0.00     0.040 C 
HETATM   19  C   UNK N   1     170.473 157.146 160.901  0.00  0.00     0.040 C 
ENDBRANCH  16  17
ENDBRANCH  14  16
ENDBRANCH   9  10
ENDBRANCH   7   9
ENDBRANCH   4   7
BRANCH   1  20
HETATM   20  C   UNK N   1     167.479 154.392 151.869  0.00  0.00     0.174 A 
HETATM   21  N   UNK N   1     167.917 153.247 152.432  0.00  0.00    -0.277 N 
HETATM   22  N   UNK N   1     168.202 152.422 151.436  0.00  0.00    -0.281 N 
ATOM     23  HN  UNK N   1     168.011 153.055 153.429  1.00  0.00     0.189 HD
HETATM   24  C   UNK N   1     167.929 153.085 150.298  0.00  0.00     0.136 A 
ATOM     25  HN  UNK N   1     168.558 151.470 151.517  1.00  0.00     0.189 HD
HETATM   26  C   UNK N   1     168.106 152.524 148.932  0.00  0.00     0.099 C 
HETATM   27  O   UNK N   1     167.487 154.290 150.561  0.00  0.00    -0.278 OA
ENDBRANCH   1  20
TORSDOF 6
ENDMDL
MODEL 2
REMARK VINA RESULT:      -6.3      4.406      6.364
REMARK  6 active torsions:
REMARK  status: ('A' for Active; 'I' for Inactive)
REMARK    1  A    between atoms: C_7  and  C_8 
REMARK    2  A    between atoms: C_11  and  N_12 
REMARK    3  A    between atoms: N_12  and  C_13 
REMARK    4  A    between atoms: C_13  and  C_14 
REMARK    5  A    between atoms: C_18  and  O_19 
REMARK    6  A    between atoms: O_19  and  C_20 
ROOT
HETATM    1  C   UNK N   1     168.519 150.528 154.579  0.00  0.00     0.017 A 
HETATM    2  C   UNK N   1     169.116 150.704 153.324  0.00  0.00     0.018 A 
HETATM    3  C   UNK N   1     169.126 151.964 152.722  0.00  0.00     0.030 A 
HETATM    4  C   UNK N   1     168.534 153.062 153.367  0.00  0.00     0.028 A 
HETATM    5  C   UNK N   1     167.936 152.884 154.618  0.00  0.00     0.030 A 
HETATM    6  C   UNK N   1     167.930 151.623 155.224  0.00  0.00     0.018 A 
ENDROOT
BRANCH   4   7
HETATM    7  N   UNK N   1     168.534 154.346 152.769  0.00  0.00    -0.386 N 
HETATM    8  H   UNK N   1     168.482 154.419 151.789  0.00  0.00     0.160 HD
BRANCH   7   9
HETATM    9  C   UNK N   1     168.608 155.551 153.561  0.00  0.00     0.158 C 
BRANCH   9  10
HETATM   10  C   UNK N   1     167.308 156.274 153.530  0.00  0.00    -0.038 A 
HETATM   11  C   UNK N   1     166.219 155.732 152.839  0.00  0.00     0.009 A 
HETATM   12  C   UNK N   1     165.007 156.424 152.792  0.00  0.00     0.003 A 
HETATM   13  C   UNK N   1     164.880 157.656 153.437  0.00  0.00     0.037 A 
HETATM   14  C   UNK N   1     165.973 158.213 154.128  0.00  0.00     0.069 A 
HETATM   15  C   UNK N   1     167.185 157.514 154.167  0.00  0.00     0.045 A 
BRANCH  14  16
HETATM   16  O   UNK N   1     165.882 159.412 154.757  0.00  0.00    -0.347 OA
BRANCH  16  17
HETATM   17  C   UNK N   1     166.062 159.599 156.116  0.00  0.00     0.120 C 
HETATM   18  C   UNK N   1     166.032 161.081 156.424  0.00  0.00     0.040 C 
HETATM   19  C   UNK N   1     164.959 158.919 156.911  0.00  0.00     0.040 C 
ENDBRANCH  16  17
ENDBRANCH  14  16
ENDBRANCH   9  10
ENDBRANCH   7   9
ENDBRANCH   4   7
BRANCH   1  20
HETATM   20  C   UNK N   1     168.509 149.204 155.215  0.00  0.00     0.174 A 
HETATM   21  N   UNK N   1     167.600 148.239 154.970  0.00  0.00    -0.277 N 
HETATM   22  N   UNK N   1     167.929 147.207 155.731  0.00  0.00    -0.281 N 
ATOM     23  HN  UNK N   1     166.812 148.294 154.324  1.00  0.00     0.189 HD
HETATM   24  C   UNK N   1     169.029 147.572 156.416  0.00  0.00     0.136 A 
ATOM     25  HN  UNK N   1     167.445 146.311 155.786  1.00  0.00     0.189 HD
HETATM   26  C   UNK N   1     169.739 146.705 157.394  0.00  0.00     0.099 C 
HETATM   27  O   UNK N   1     169.385 148.793 156.102  0.00  0.00    -0.278 OA
ENDBRANCH   1  20
TORSDOF 6
ENDMDL
MODEL 3
REMARK VINA RESULT:      -6.2      3.833      5.544
REMARK  6 active torsions:
REMARK  status: ('A' for Active; 'I' for Inactive)
REMARK    1  A    between atoms: C_7  and  C_8 
REMARK    2  A    between atoms: C_11  and  N_12 
REMARK    3  A    between atoms: N_12  and  C_13 
REMARK    4  A    between atoms: C_13  and  C_14 
REMARK    5  A    between atoms: C_18  and  O_19 
REMARK    6  A    between atoms: O_19  and  C_20 
ROOT
HETATM    1  C   UNK N   1     168.330 151.927 154.775  0.00  0.00     0.017 A 
HETATM    2  C   UNK N   1     168.661 152.351 153.483  0.00  0.00     0.018 A 
HETATM    3  C   UNK N   1     168.919 153.701 153.232  0.00  0.00     0.030 A 
HETATM    4  C   UNK N   1     168.844 154.641 154.272  0.00  0.00     0.028 A 
HETATM    5  C   UNK N   1     168.511 154.216 155.562  0.00  0.00     0.030 A 
HETATM    6  C   UNK N   1     168.257 152.864 155.814  0.00  0.00     0.018 A 
ENDROOT
BRANCH   4   7
HETATM    7  N   UNK N   1     169.101 156.014 154.034  0.00  0.00    -0.386 N 
HETATM    8  H   UNK N   1     169.833 156.457 154.521  0.00  0.00     0.160 HD
BRANCH   7   9
HETATM    9  C   UNK N   1     168.315 156.782 153.097  0.00  0.00     0.158 C 
BRANCH   9  10
HETATM   10  C   UNK N   1     166.945 157.008 153.632  0.00  0.00    -0.038 A 
HETATM   11  C   UNK N   1     165.870 156.253 153.153  0.00  0.00     0.009 A 
HETATM   12  C   UNK N   1     164.582 156.483 153.640  0.00  0.00     0.003 A 
HETATM   13  C   UNK N   1     164.366 157.467 154.608  0.00  0.00     0.037 A 
HETATM   14  C   UNK N   1     165.441 158.237 155.090  0.00  0.00     0.069 A 
HETATM   15  C   UNK N   1     166.728 158.002 154.594  0.00  0.00     0.045 A 
BRANCH  14  16
HETATM   16  O   UNK N   1     165.260 159.205 156.024  0.00  0.00    -0.347 OA
BRANCH  16  17
HETATM   17  C   UNK N   1     166.276 159.980 156.555  0.00  0.00     0.120 C 
HETATM   18  C   UNK N   1     165.866 161.436 156.517  0.00  0.00     0.040 C 
HETATM   19  C   UNK N   1     166.556 159.596 158.000  0.00  0.00     0.040 C 
ENDBRANCH  16  17
ENDBRANCH  14  16
ENDBRANCH   9  10
ENDBRANCH   7   9
ENDBRANCH   4   7
BRANCH   1  20
HETATM   20  C   UNK N   1     168.060 150.508 155.042  0.00  0.00     0.174 A 
HETATM   21  N   UNK N   1     167.772 149.589 154.099  0.00  0.00    -0.277 N 
HETATM   22  N   UNK N   1     167.595 148.439 154.732  0.00  0.00    -0.281 N 
ATOM     23  HN  UNK N   1     167.703 149.748 153.094  1.00  0.00     0.189 HD
HETATM   24  C   UNK N   1     167.782 148.691 156.041  0.00  0.00     0.136 A 
ATOM     25  HN  UNK N   1     167.364 147.540 154.310  1.00  0.00     0.189 HD
HETATM   26  C   UNK N   1     167.679 147.670 157.118  0.00  0.00     0.099 C 
HETATM   27  O   UNK N   1     168.066 149.955 156.232  0.00  0.00    -0.278 OA
ENDBRANCH   1  20
TORSDOF 6
ENDMDL
MODEL 4
REMARK VINA RESULT:      -6.2      4.503      8.990
REMARK  6 active torsions:
REMARK  status: ('A' for Active; 'I' for Inactive)
REMARK    1  A    between atoms: C_7  and  C_8 
REMARK    2  A    between atoms: C_11  and  N_12 
REMARK    3  A    between atoms: N_12  and  C_13 
REMARK    4  A    between atoms: C_13  and  C_14 
REMARK    5  A    between atoms: C_18  and  O_19 
REMARK    6  A    between atoms: O_19  and  C_20 
ROOT
HETATM    1  C   UNK N   1     163.380 155.967 155.858  0.00  0.00     0.017 A 
HETATM    2  C   UNK N   1     164.298 154.909 155.836  0.00  0.00     0.018 A 
HETATM    3  C   UNK N   1     165.392 154.949 154.968  0.00  0.00     0.030 A 
HETATM    4  C   UNK N   1     165.576 156.044 154.110  0.00  0.00     0.028 A 
HETATM    5  C   UNK N   1     164.657 157.098 154.132  0.00  0.00     0.030 A 
HETATM    6  C   UNK N   1     163.564 157.062 155.004  0.00  0.00     0.018 A 
ENDROOT
BRANCH   4   7
HETATM    7  N   UNK N   1     166.680 156.099 153.223  0.00  0.00    -0.386 N 
HETATM    8  H   UNK N   1     166.782 156.879 152.632  0.00  0.00     0.160 HD
BRANCH   7   9
HETATM    9  C   UNK N   1     167.658 155.039 153.163  0.00  0.00     0.158 C 
BRANCH   9  10
HETATM   10  C   UNK N   1     167.552 154.307 151.872  0.00  0.00    -0.038 A 
HETATM   11  C   UNK N   1     166.769 154.823 150.834  0.00  0.00     0.009 A 
HETATM   12  C   UNK N   1     166.653 154.123 149.632  0.00  0.00     0.003 A 
HETATM   13  C   UNK N   1     167.320 152.907 149.464  0.00  0.00     0.037 A 
HETATM   14  C   UNK N   1     168.104 152.377 150.505  0.00  0.00     0.069 A 
HETATM   15  C   UNK N   1     168.212 153.085 151.708  0.00  0.00     0.045 A 
BRANCH  14  16
HETATM   16  O   UNK N   1     168.757 151.195 150.374  0.00  0.00    -0.347 OA
BRANCH  16  17
HETATM   17  C   UNK N   1     168.803 150.452 149.207  0.00  0.00     0.120 C 
HETATM   18  C   UNK N   1     170.203 150.509 148.634  0.00  0.00     0.040 C 
HETATM   19  C   UNK N   1     168.451 148.997 149.474  0.00  0.00     0.040 C 
ENDBRANCH  16  17
ENDBRANCH  14  16
ENDBRANCH   9  10
ENDBRANCH   7   9
ENDBRANCH   4   7
BRANCH   1  20
HETATM   20  C   UNK N   1     162.229 155.928 156.771  0.00  0.00     0.174 A 
HETATM   21  N   UNK N   1     162.197 155.261 157.942  0.00  0.00    -0.277 N 
HETATM   22  N   UNK N   1     160.998 155.470 158.463  0.00  0.00    -0.281 N 
ATOM     23  HN  UNK N   1     162.949 154.703 158.346  1.00  0.00     0.189 HD
HETATM   24  C   UNK N   1     160.336 156.259 157.598  0.00  0.00     0.136 A 
ATOM     25  HN  UNK N   1     160.647 155.105 159.349  1.00  0.00     0.189 HD
HETATM   26  C   UNK N   1     158.944 156.742 157.794  0.00  0.00     0.099 C 
HETATM   27  O   UNK N   1     161.087 156.540 156.561  0.00  0.00    -0.278 OA
ENDBRANCH   1  20
TORSDOF 6
ENDMDL
MODEL 5
REMARK VINA RESULT:      -6.1      2.278      4.032
REMARK  6 active torsions:
REMARK  status: ('A' for Active; 'I' for Inactive)
REMARK    1  A    between atoms: C_7  and  C_8 
REMARK    2  A    between atoms: C_11  and  N_12 
REMARK    3  A    between atoms: N_12  and  C_13 
REMARK    4  A    between atoms: C_13  and  C_14 
REMARK    5  A    between atoms: C_18  and  O_19 
REMARK    6  A    between atoms: O_19  and  C_20 
ROOT
HETATM    1  C   UNK N   1     168.195 154.451 153.493  0.00  0.00     0.017 A 
HETATM    2  C   UNK N   1     168.936 155.622 153.696  0.00  0.00     0.018 A 
HETATM    3  C   UNK N   1     169.206 156.065 154.993  0.00  0.00     0.030 A 
HETATM    4  C   UNK N   1     168.733 155.343 156.101  0.00  0.00     0.028 A 
HETATM    5  C   UNK N   1     167.992 154.175 155.896  0.00  0.00     0.030 A 
HETATM    6  C   UNK N   1     167.725 153.728 154.597  0.00  0.00     0.018 A 
ENDROOT
BRANCH   4   7
HETATM    7  N   UNK N   1     168.997 155.779 157.423  0.00  0.00    -0.386 N 
HETATM    8  H   UNK N   1     169.920 155.748 157.763  0.00  0.00     0.160 HD
BRANCH   7   9
HETATM    9  C   UNK N   1     167.946 156.268 158.284  0.00  0.00     0.158 C 
BRANCH   9  10
HETATM   10  C   UNK N   1     167.282 157.451 157.672  0.00  0.00    -0.038 A 
HETATM   11  C   UNK N   1     167.676 158.743 158.031  0.00  0.00     0.009 A 
HETATM   12  C   UNK N   1     167.035 159.851 157.472  0.00  0.00     0.003 A 
HETATM   13  C   UNK N   1     166.000 159.668 156.552  0.00  0.00     0.037 A 
HETATM   14  C   UNK N   1     165.591 158.370 156.191  0.00  0.00     0.069 A 
HETATM   15  C   UNK N   1     166.237 157.267 156.759  0.00  0.00     0.045 A 
BRANCH  14  16
HETATM   16  O   UNK N   1     164.583 158.162 155.306  0.00  0.00    -0.347 OA
BRANCH  16  17
HETATM   17  C   UNK N   1     164.763 157.764 153.993  0.00  0.00     0.120 C 
HETATM   18  C   UNK N   1     166.154 158.153 153.540  0.00  0.00     0.040 C 
HETATM   19  C   UNK N   1     164.615 156.257 153.855  0.00  0.00     0.040 C 
ENDBRANCH  16  17
ENDBRANCH  14  16
ENDBRANCH   9  10
ENDBRANCH   7   9
ENDBRANCH   4   7
BRANCH   1  20
HETATM   20  C   UNK N   1     167.912 153.982 152.130  0.00  0.00     0.174 A 
HETATM   21  N   UNK N   1     168.066 152.712 151.705  0.00  0.00    -0.277 N 
HETATM   22  N   UNK N   1     167.711 152.694 150.429  0.00  0.00    -0.281 N 
ATOM     23  HN  UNK N   1     168.394 151.920 152.257  1.00  0.00     0.189 HD
HETATM   24  C   UNK N   1     167.349 153.951 150.115  0.00  0.00     0.136 A 
ATOM     25  HN  UNK N   1     167.710 151.885 149.808  1.00  0.00     0.189 HD
HETATM   26  C   UNK N   1     166.876 154.381 148.773  0.00  0.00     0.099 C 
HETATM   27  O   UNK N   1     167.472 154.741 151.154  0.00  0.00    -0.278 OA
ENDBRANCH   1  20
TORSDOF 6
ENDMDL
MODEL 6
REMARK VINA RESULT:      -6.1      4.536      6.466
REMARK  6 active torsions:
REMARK  status: ('A' for Active; 'I' for Inactive)
REMARK    1  A    between atoms: C_7  and  C_8 
REMARK    2  A    between atoms: C_11  and  N_12 
REMARK    3  A    between atoms: N_12  and  C_13 
REMARK    4  A    between atoms: C_13  and  C_14 
REMARK    5  A    between atoms: C_18  and  O_19 
REMARK    6  A    between atoms: O_19  and  C_20 
ROOT
HETATM    1  C   UNK N   1     168.350 150.869 154.656  0.00  0.00     0.017 A 
HETATM    2  C   UNK N   1     167.828 151.993 155.308  0.00  0.00     0.018 A 
HETATM    3  C   UNK N   1     167.876 153.246 154.693  0.00  0.00     0.030 A 
HETATM    4  C   UNK N   1     168.452 153.389 153.421  0.00  0.00     0.028 A 
HETATM    5  C   UNK N   1     168.975 152.266 152.772  0.00  0.00     0.030 A 
HETATM    6  C   UNK N   1     168.923 151.010 153.385  0.00  0.00     0.018 A 
ENDROOT
BRANCH   4   7
HETATM    7  N   UNK N   1     168.510 154.654 152.784  0.00  0.00    -0.386 N 
HETATM    8  H   UNK N   1     169.372 155.126 152.733  0.00  0.00     0.160 HD
BRANCH   7   9
HETATM    9  C   UNK N   1     167.337 155.268 152.208  0.00  0.00     0.158 C 
BRANCH   9  10
HETATM   10  C   UNK N   1     166.665 156.142 153.208  0.00  0.00    -0.038 A 
HETATM   11  C   UNK N   1     167.369 157.187 153.813  0.00  0.00     0.009 A 
HETATM   12  C   UNK N   1     166.743 157.991 154.768  0.00  0.00     0.003 A 
HETATM   13  C   UNK N   1     165.412 157.752 155.119  0.00  0.00     0.037 A 
HETATM   14  C   UNK N   1     164.698 156.697 154.520  0.00  0.00     0.069 A 
HETATM   15  C   UNK N   1     165.335 155.895 153.567  0.00  0.00     0.045 A 
BRANCH  14  16
HETATM   16  O   UNK N   1     163.407 156.435 154.847  0.00  0.00    -0.347 OA
BRANCH  16  17
HETATM   17  C   UNK N   1     163.013 155.556 155.840  0.00  0.00     0.120 C 
HETATM   18  C   UNK N   1     161.893 156.180 156.644  0.00  0.00     0.040 C 
HETATM   19  C   UNK N   1     162.510 154.251 155.244  0.00  0.00     0.040 C 
ENDBRANCH  16  17
ENDBRANCH  14  16
ENDBRANCH   9  10
ENDBRANCH   7   9
ENDBRANCH   4   7
BRANCH   1  20
HETATM   20  C   UNK N   1     168.299 149.550 155.299  0.00  0.00     0.174 A 
HETATM   21  N   UNK N   1     167.469 148.550 154.941  0.00  0.00    -0.277 N 
HETATM   22  N   UNK N   1     167.726 147.536 155.753  0.00  0.00    -0.281 N 
ATOM     23  HN  UNK N   1     166.778 148.570 154.191  1.00  0.00     0.189 HD
HETATM   24  C   UNK N   1     168.704 147.946 156.581  0.00  0.00     0.136 A 
ATOM     25  HN  UNK N   1     167.271 146.623 155.751  1.00  0.00     0.189 HD
HETATM   26  C   UNK N   1     169.301 147.113 157.658  0.00  0.00     0.099 C 
HETATM   27  O   UNK N   1     169.056 149.178 156.305  0.00  0.00    -0.278 OA
ENDBRANCH   1  20
TORSDOF 6
ENDMDL
MODEL 7
REMARK VINA RESULT:      -6.0      1.620      1.956
REMARK  6 active torsions:
REMARK  status: ('A' for Active; 'I' for Inactive)
REMARK    1  A    between atoms: C_7  and  C_8 
REMARK    2  A    between atoms: C_11  and  N_12 
REMARK    3  A    between atoms: N_12  and  C_13 
REMARK    4  A    between atoms: C_13  and  C_14 
REMARK    5  A    between atoms: C_18  and  O_19 
REMARK    6  A    between atoms: O_19  and  C_20 
ROOT
HETATM    1  C   UNK N   1     167.603 155.076 153.720  0.00  0.00     0.017 A 
HETATM    2  C   UNK N   1     166.348 155.082 154.341  0.00  0.00     0.018 A 
HETATM    3  C   UNK N   1     165.747 156.292 154.696  0.00  0.00     0.030 A 
HETATM    4  C   UNK N   1     166.398 157.509 154.437  0.00  0.00     0.028 A 
HETATM    5  C   UNK N   1     167.652 157.500 153.818  0.00  0.00     0.030 A 
HETATM    6  C   UNK N   1     168.252 156.289 153.458  0.00  0.00     0.018 A 
ENDROOT
BRANCH   4   7
HETATM    7  N   UNK N   1     165.803 158.745 154.792  0.00  0.00    -0.386 N 
HETATM    8  H   UNK N   1     165.695 159.441 154.104  0.00  0.00     0.160 HD
BRANCH   7   9
HETATM    9  C   UNK N   1     165.351 159.011 156.137  0.00  0.00     0.158 C 
BRANCH   9  10
HETATM   10  C   UNK N   1     166.506 159.340 157.017  0.00  0.00    -0.038 A 
HETATM   11  C   UNK N   1     166.852 160.674 157.253  0.00  0.00     0.009 A 
HETATM   12  C   UNK N   1     167.950 160.979 158.060  0.00  0.00     0.003 A 
HETATM   13  C   UNK N   1     168.703 159.952 158.633  0.00  0.00     0.037 A 
HETATM   14  C   UNK N   1     168.366 158.606 158.394  0.00  0.00     0.069 A 
HETATM   15  C   UNK N   1     167.266 158.310 157.581  0.00  0.00     0.045 A 
BRANCH  14  16
HETATM   16  O   UNK N   1     169.085 157.587 158.931  0.00  0.00    -0.347 OA
BRANCH  16  17
HETATM   17  C   UNK N   1     169.238 157.367 160.288  0.00  0.00     0.120 C 
HETATM   18  C   UNK N   1     168.508 156.099 160.674  0.00  0.00     0.040 C 
HETATM   19  C   UNK N   1     170.706 157.208 160.652  0.00  0.00     0.040 C 
ENDBRANCH  16  17
ENDBRANCH  14  16
ENDBRANCH   9  10
ENDBRANCH   7   9
ENDBRANCH   4   7
BRANCH   1  20
HETATM   20  C   UNK N   1     168.236 153.804 153.344  0.00  0.00     0.174 A 
HETATM   21  N   UNK N   1     167.945 153.098 152.233  0.00  0.00    -0.277 N 
HETATM   22  N   UNK N   1     168.719 152.024 152.254  0.00  0.00    -0.281 N 
ATOM     23  HN  UNK N   1     167.261 153.343 151.517  1.00  0.00     0.189 HD
HETATM   24  C   UNK N   1     169.460 152.108 153.374  0.00  0.00     0.136 A 
ATOM     25  HN  UNK N   1     168.749 151.281 151.556  1.00  0.00     0.189 HD
HETATM   26  C   UNK N   1     170.472 151.102 153.792  0.00  0.00     0.099 C 
HETATM   27  O   UNK N   1     169.166 153.196 154.042  0.00  0.00    -0.278 OA
ENDBRANCH   1  20
TORSDOF 6
ENDMDL
MODEL 8
REMARK VINA RESULT:      -6.0      2.382      3.959
REMARK  6 active torsions:
REMARK  status: ('A' for Active; 'I' for Inactive)
REMARK    1  A    between atoms: C_7  and  C_8 
REMARK    2  A    between atoms: C_11  and  N_12 
REMARK    3  A    between atoms: N_12  and  C_13 
REMARK    4  A    between atoms: C_13  and  C_14 
REMARK    5  A    between atoms: C_18  and  O_19 
REMARK    6  A    between atoms: O_19  and  C_20 
ROOT
HETATM    1  C   UNK N   1     167.786 154.879 153.334  0.00  0.00     0.017 A 
HETATM    2  C   UNK N   1     169.078 155.241 153.733  0.00  0.00     0.018 A 
HETATM    3  C   UNK N   1     169.284 155.856 154.970  0.00  0.00     0.030 A 
HETATM    4  C   UNK N   1     168.198 156.120 155.819  0.00  0.00     0.028 A 
HETATM    5  C   UNK N   1     166.908 155.760 155.418  0.00  0.00     0.030 A 
HETATM    6  C   UNK N   1     166.701 155.140 154.181  0.00  0.00     0.018 A 
ENDROOT
BRANCH   4   7
HETATM    7  N   UNK N   1     168.389 156.745 157.076  0.00  0.00    -0.386 N 
HETATM    8  H   UNK N   1     169.306 156.885 157.408  0.00  0.00     0.160 HD
BRANCH   7   9
HETATM    9  C   UNK N   1     167.275 157.180 157.885  0.00  0.00     0.158 C 
BRANCH   9  10
HETATM   10  C   UNK N   1     167.136 158.660 157.823  0.00  0.00    -0.038 A 
HETATM   11  C   UNK N   1     168.136 159.483 158.349  0.00  0.00     0.009 A 
HETATM   12  C   UNK N   1     167.991 160.872 158.309  0.00  0.00     0.003 A 
HETATM   13  C   UNK N   1     166.848 161.439 157.743  0.00  0.00     0.037 A 
HETATM   14  C   UNK N   1     165.832 160.618 157.218  0.00  0.00     0.069 A 
HETATM   15  C   UNK N   1     165.985 159.228 157.265  0.00  0.00     0.045 A 
BRANCH  14  16
HETATM   16  O   UNK N   1     164.707 161.141 156.669  0.00  0.00    -0.347 OA
BRANCH  16  17
HETATM   17  C   UNK N   1     163.809 161.949 157.344  0.00  0.00     0.120 C 
HETATM   18  C   UNK N   1     163.827 163.334 156.732  0.00  0.00     0.040 C 
HETATM   19  C   UNK N   1     162.396 161.396 157.244  0.00  0.00     0.040 C 
ENDBRANCH  16  17
ENDBRANCH  14  16
ENDBRANCH   9  10
ENDBRANCH   7   9
ENDBRANCH   4   7
BRANCH   1  20
HETATM   20  C   UNK N   1     167.567 154.231 152.034  0.00  0.00     0.174 A 
HETATM   21  N   UNK N   1     167.947 152.974 151.727  0.00  0.00    -0.277 N 
HETATM   22  N   UNK N   1     167.576 152.762 150.474  0.00  0.00    -0.281 N 
ATOM     23  HN  UNK N   1     168.428 152.316 152.340  1.00  0.00     0.189 HD
HETATM   24  C   UNK N   1     166.979 153.893 150.055  0.00  0.00     0.136 A 
ATOM     25  HN  UNK N   1     167.713 151.909 149.933  1.00  0.00     0.189 HD
HETATM   26  C   UNK N   1     166.407 154.091 148.697  0.00  0.00     0.099 C 
HETATM   27  O   UNK N   1     166.973 154.793 151.007  0.00  0.00    -0.278 OA
ENDBRANCH   1  20
TORSDOF 6
ENDMDL
MODEL 9
REMARK VINA RESULT:      -6.0      3.569      5.302
REMARK  6 active torsions:
REMARK  status: ('A' for Active; 'I' for Inactive)
REMARK    1  A    between atoms: C_7  and  C_8 
REMARK    2  A    between atoms: C_11  and  N_12 
REMARK    3  A    between atoms: N_12  and  C_13 
REMARK    4  A    between atoms: C_13  and  C_14 
REMARK    5  A    between atoms: C_18  and  O_19 
REMARK    6  A    between atoms: O_19  and  C_20 
ROOT
HETATM    1  C   UNK N   1     168.783 152.479 154.299  0.00  0.00     0.017 A 
HETATM    2  C   UNK N   1     169.147 153.591 153.529  0.00  0.00     0.018 A 
HETATM    3  C   UNK N   1     169.198 154.860 154.111  0.00  0.00     0.030 A 
HETATM    4  C   UNK N   1     168.882 155.031 155.468  0.00  0.00     0.028 A 
HETATM    5  C   UNK N   1     168.517 153.920 156.234  0.00  0.00     0.030 A 
HETATM    6  C   UNK N   1     168.470 152.648 155.654  0.00  0.00     0.018 A 
ENDROOT
BRANCH   4   7
HETATM    7  N   UNK N   1     168.927 156.311 156.072  0.00  0.00    -0.386 N 
HETATM    8  H   UNK N   1     169.789 156.784 156.131  0.00  0.00     0.160 HD
BRANCH   7   9
HETATM    9  C   UNK N   1     167.743 156.941 156.606  0.00  0.00     0.158 C 
BRANCH   9  10
HETATM   10  C   UNK N   1     166.726 157.126 155.535  0.00  0.00    -0.038 A 
HETATM   11  C   UNK N   1     166.839 158.191 154.636  0.00  0.00     0.009 A 
HETATM   12  C   UNK N   1     165.870 158.376 153.647  0.00  0.00     0.003 A 
HETATM   13  C   UNK N   1     164.790 157.496 153.554  0.00  0.00     0.037 A 
HETATM   14  C   UNK N   1     164.665 156.425 154.459  0.00  0.00     0.069 A 
HETATM   15  C   UNK N   1     165.638 156.250 155.449  0.00  0.00     0.045 A 
BRANCH  14  16
HETATM   16  O   UNK N   1     163.622 155.559 154.398  0.00  0.00    -0.347 OA
BRANCH  16  17
HETATM   17  C   UNK N   1     163.064 154.927 155.495  0.00  0.00     0.120 C 
HETATM   18  C   UNK N   1     162.263 155.931 156.296  0.00  0.00     0.040 C 
HETATM   19  C   UNK N   1     162.134 153.804 155.062  0.00  0.00     0.040 C 
ENDBRANCH  16  17
ENDBRANCH  14  16
ENDBRANCH   9  10
ENDBRANCH   7   9
ENDBRANCH   4   7
BRANCH   1  20
HETATM   20  C   UNK N   1     168.730 151.143 153.691  0.00  0.00     0.174 A 
HETATM   21  N   UNK N   1     167.973 150.122 154.140  0.00  0.00    -0.277 N 
HETATM   22  N   UNK N   1     168.202 149.098 153.332  0.00  0.00    -0.281 N 
ATOM     23  HN  UNK N   1     167.348 150.135 154.945  1.00  0.00     0.189 HD
HETATM   24  C   UNK N   1     169.088 149.525 152.414  0.00  0.00     0.136 A 
ATOM     25  HN  UNK N   1     167.785 148.169 153.393  1.00  0.00     0.189 HD
HETATM   26  C   UNK N   1     169.623 148.688 151.307  0.00  0.00     0.099 C 
HETATM   27  O   UNK N   1     169.413 150.775 152.632  0.00  0.00    -0.278 OA
ENDBRANCH   1  20
TORSDOF 6
ENDMDL
