MODEL 1
REMARK VINA RESULT:      -6.7      0.000      0.000
REMARK  3 active torsions:
REMARK  status: ('A' for Active; 'I' for Inactive)
REMARK    1  A    between atoms: C_3  and  C_2 
REMARK       I    between atoms: N_11  and  C_12 
REMARK    2  A    between atoms: C_12  and  C_14 
REMARK    3  A    between atoms: C_17  and  N_18 
ROOT
HETATM    1  C   UNK N   1     166.623 156.906 153.472  0.00  0.00     0.047 A 
HETATM    2  C   UNK N   1     165.597 156.184 152.846  0.00  0.00     0.022 A 
HETATM    3  C   UNK N   1     165.902 155.142 151.965  0.00  0.00     0.051 A 
HETATM    4  C   UNK N   1     167.243 154.843 151.687  0.00  0.00     0.127 A 
HETATM    5  N   UNK N   1     168.226 155.552 152.304  0.00  0.00    -0.350 N 
ATOM      6  HN  UNK N   1     169.200 155.332 152.098  1.00  0.00     0.166 HD
HETATM    7  C   UNK N   1     167.949 156.546 153.187  0.00  0.00     0.106 A 
ENDROOT
BRANCH   1   8
HETATM    8  C   UNK N   1     166.380 158.025 154.442  0.00  0.00     0.255 C 
HETATM    9  N   UNK N   1     166.617 157.944 155.797  0.00  0.00    -0.336 N 
HETATM   10  C   UNK N   1     166.308 159.134 156.613  0.00  0.00     0.147 C 
HETATM   11  C   UNK N   1     167.039 156.688 156.435  0.00  0.00     0.137 C 
HETATM   12  C   UNK N   1     166.150 158.840 158.113  0.00  0.00     0.148 C 
HETATM   13  N   UNK N   1     167.235 157.976 158.522  0.00  0.00    -0.357 N 
HETATM   14  C   UNK N   1     168.006 158.047 159.616  0.00  0.00     0.091 A 
HETATM   15  C   UNK N   1     167.672 156.979 157.762  0.00  0.00     0.034 A 
HETATM   16  C   UNK N   1     168.968 157.047 159.545  0.00  0.00     0.019 A 
HETATM   17  C   UNK N   1     168.761 156.370 158.345  0.00  0.00     0.028 A 
HETATM   18  O   UNK N   1     165.923 159.067 153.987  0.00  0.00    -0.267 OA
BRANCH  11  19
HETATM   19  C   UNK N   1     165.797 155.814 156.634  0.00  0.00     0.027 C 
HETATM   20  C   UNK N   1     166.021 154.385 156.170  0.00  0.00     0.007 C 
ENDBRANCH  11  19
ENDBRANCH   1   8
BRANCH   4  21
HETATM   21  N   UNK N   1     167.577 153.783 150.770  0.00  0.00    -0.244 N 
HETATM   22  N   UNK N   1     167.963 152.580 151.154  0.00  0.00    -0.297 N 
HETATM   23  C   UNK N   1     168.212 151.855 150.047  0.00  0.00     0.024 A 
ATOM     24  HN  UNK N   1     168.057 152.258 152.117  1.00  0.00     0.187 HD
HETATM   25  C   UNK N   1     168.699 150.451 150.061  0.00  0.00     0.070 C 
HETATM   26  C   UNK N   1     167.966 152.609 148.914  0.00  0.00     0.052 A 
HETATM   27  C   UNK N   1     167.565 153.831 149.418  0.00  0.00     0.034 A 
HETATM   28  C   UNK N   1     167.152 154.998 148.586  0.00  0.00     0.070 C 
ENDBRANCH   4  21
TORSDOF 3
ENDMDL
MODEL 2
REMARK VINA RESULT:      -6.3      2.516      4.026
REMARK  3 active torsions:
REMARK  status: ('A' for Active; 'I' for Inactive)
REMARK    1  A    between atoms: C_3  and  C_2 
REMARK       I    between atoms: N_11  and  C_12 
REMARK    2  A    between atoms: C_12  and  C_14 
REMARK    3  A    between atoms: C_17  and  N_18 
ROOT
HETATM    1  C   UNK N   1     168.148 155.011 155.438  0.00  0.00     0.047 A 
HETATM    2  C   UNK N   1     167.561 153.755 155.646  0.00  0.00     0.022 A 
HETATM    3  C   UNK N   1     167.896 152.673 154.826  0.00  0.00     0.051 A 
HETATM    4  C   UNK N   1     168.801 152.860 153.772  0.00  0.00     0.127 A 
HETATM    5  N   UNK N   1     169.361 154.084 153.584  0.00  0.00    -0.350 N 
ATOM      6  HN  UNK N   1     170.018 154.215 152.815  1.00  0.00     0.166 HD
HETATM    7  C   UNK N   1     169.073 155.138 154.391  0.00  0.00     0.106 A 
ENDROOT
BRANCH   1   8
HETATM    8  C   UNK N   1     167.855 156.216 156.283  0.00  0.00     0.255 C 
HETATM    9  N   UNK N   1     166.656 156.895 156.277  0.00  0.00    -0.336 N 
HETATM   10  C   UNK N   1     166.538 158.073 157.158  0.00  0.00     0.147 C 
HETATM   11  C   UNK N   1     165.575 156.549 155.342  0.00  0.00     0.137 C 
HETATM   12  C   UNK N   1     165.397 159.029 156.775  0.00  0.00     0.148 C 
HETATM   13  N   UNK N   1     164.217 158.239 156.504  0.00  0.00    -0.357 N 
HETATM   14  C   UNK N   1     162.951 158.452 156.890  0.00  0.00     0.091 A 
HETATM   15  C   UNK N   1     164.271 157.085 155.851  0.00  0.00     0.034 A 
HETATM   16  C   UNK N   1     162.172 157.386 156.457  0.00  0.00     0.019 A 
HETATM   17  C   UNK N   1     163.024 156.501 155.801  0.00  0.00     0.028 A 
HETATM   18  O   UNK N   1     168.757 156.623 157.005  0.00  0.00    -0.267 OA
BRANCH  11  19
HETATM   19  C   UNK N   1     165.899 157.178 153.984  0.00  0.00     0.027 C 
HETATM   20  C   UNK N   1     165.736 156.191 152.841  0.00  0.00     0.007 C 
ENDBRANCH  11  19
ENDBRANCH   1   8
BRANCH   4  21
HETATM   21  N   UNK N   1     169.146 151.761 152.906  0.00  0.00    -0.244 N 
HETATM   22  N   UNK N   1     168.599 151.568 151.720  0.00  0.00    -0.297 N 
HETATM   23  C   UNK N   1     169.133 150.447 151.198  0.00  0.00     0.024 A 
ATOM     24  HN  UNK N   1     167.898 152.161 151.277  1.00  0.00     0.187 HD
HETATM   25  C   UNK N   1     168.752 149.876 149.880  0.00  0.00     0.070 C 
HETATM   26  C   UNK N   1     170.062 149.908 152.070  0.00  0.00     0.052 A 
HETATM   27  C   UNK N   1     170.039 150.773 153.145  0.00  0.00     0.034 A 
HETATM   28  C   UNK N   1     170.899 150.645 154.358  0.00  0.00     0.070 C 
ENDBRANCH   4  21
TORSDOF 3
ENDMDL
MODEL 3
REMARK VINA RESULT:      -6.1      4.033      8.070
REMARK  3 active torsions:
REMARK  status: ('A' for Active; 'I' for Inactive)
REMARK    1  A    between atoms: C_3  and  C_2 
REMARK       I    between atoms: N_11  and  C_12 
REMARK    2  A    between atoms: C_12  and  C_14 
REMARK    3  A    between atoms: C_17  and  N_18 
ROOT
HETATM    1  C   UNK N   1     164.524 155.728 155.615  0.00  0.00     0.047 A 
HETATM    2  C   UNK N   1     164.579 156.742 156.581  0.00  0.00     0.022 A 
HETATM    3  C   UNK N   1     163.747 156.694 157.705  0.00  0.00     0.051 A 
HETATM    4  C   UNK N   1     162.834 155.640 157.843  0.00  0.00     0.127 A 
HETATM    5  N   UNK N   1     162.794 154.664 156.897  0.00  0.00    -0.350 N 
ATOM      6  HN  UNK N   1     162.127 153.900 157.001  1.00  0.00     0.166 HD
HETATM    7  C   UNK N   1     163.617 154.676 155.816  0.00  0.00     0.106 A 
ENDROOT
BRANCH   1   8
HETATM    8  C   UNK N   1     165.393 155.697 154.392  0.00  0.00     0.255 C 
HETATM    9  N   UNK N   1     166.494 154.882 154.243  0.00  0.00    -0.336 N 
HETATM   10  C   UNK N   1     167.251 154.988 152.980  0.00  0.00     0.147 C 
HETATM   11  C   UNK N   1     166.982 154.031 155.338  0.00  0.00     0.137 C 
HETATM   12  C   UNK N   1     168.680 154.426 153.057  0.00  0.00     0.148 C 
HETATM   13  N   UNK N   1     168.627 153.149 153.736  0.00  0.00    -0.357 N 
HETATM   14  C   UNK N   1     169.242 152.000 153.422  0.00  0.00     0.091 A 
HETATM   15  C   UNK N   1     167.845 152.937 154.787  0.00  0.00     0.034 A 
HETATM   16  C   UNK N   1     168.832 151.021 154.319  0.00  0.00     0.019 A 
HETATM   17  C   UNK N   1     167.924 151.622 155.188  0.00  0.00     0.028 A 
HETATM   18  O   UNK N   1     165.103 156.465 153.482  0.00  0.00    -0.267 OA
BRANCH  11  19
HETATM   19  C   UNK N   1     167.801 154.905 156.293  0.00  0.00     0.027 C 
HETATM   20  C   UNK N   1     167.445 154.654 157.748  0.00  0.00     0.007 C 
ENDBRANCH  11  19
ENDBRANCH   1   8
BRANCH   4  21
HETATM   21  N   UNK N   1     161.958 155.582 158.985  0.00  0.00    -0.244 N 
HETATM   22  N   UNK N   1     162.351 155.205 160.188  0.00  0.00    -0.297 N 
HETATM   23  C   UNK N   1     161.280 155.248 161.003  0.00  0.00     0.024 A 
ATOM     24  HN  UNK N   1     163.297 154.930 160.453  1.00  0.00     0.187 HD
HETATM   25  C   UNK N   1     161.309 154.866 162.439  0.00  0.00     0.070 C 
HETATM   26  C   UNK N   1     160.165 155.678 160.307  0.00  0.00     0.052 A 
HETATM   27  C   UNK N   1     160.639 155.879 159.026  0.00  0.00     0.034 A 
HETATM   28  C   UNK N   1     159.817 156.380 157.886  0.00  0.00     0.070 C 
ENDBRANCH   4  21
TORSDOF 3
ENDMDL
MODEL 4
REMARK VINA RESULT:      -6.1      1.964      3.111
REMARK  3 active torsions:
REMARK  status: ('A' for Active; 'I' for Inactive)
REMARK    1  A    between atoms: C_3  and  C_2 
REMARK       I    between atoms: N_11  and  C_12 
REMARK    2  A    between atoms: C_12  and  C_14 
REMARK    3  A    between atoms: C_17  and  N_18 
ROOT
HETATM    1  C   UNK N   1     167.823 155.713 154.859  0.00  0.00     0.047 A 
HETATM    2  C   UNK N   1     167.438 154.373 155.009  0.00  0.00     0.022 A 
HETATM    3  C   UNK N   1     167.529 153.486 153.931  0.00  0.00     0.051 A 
HETATM    4  C   UNK N   1     167.979 153.954 152.689  0.00  0.00     0.127 A 
HETATM    5  N   UNK N   1     168.349 155.256 152.561  0.00  0.00    -0.350 N 
ATOM      6  HN  UNK N   1     168.674 155.592 151.655  1.00  0.00     0.166 HD
HETATM    7  C   UNK N   1     168.298 156.124 153.605  0.00  0.00     0.106 A 
ENDROOT
BRANCH   1   8
HETATM    8  C   UNK N   1     167.771 156.722 155.968  0.00  0.00     0.255 C 
HETATM    9  N   UNK N   1     166.678 157.514 156.247  0.00  0.00    -0.336 N 
HETATM   10  C   UNK N   1     166.799 158.469 157.365  0.00  0.00     0.147 C 
HETATM   11  C   UNK N   1     165.481 157.510 155.393  0.00  0.00     0.137 C 
HETATM   12  C   UNK N   1     165.768 159.608 157.330  0.00  0.00     0.148 C 
HETATM   13  N   UNK N   1     164.472 159.036 157.037  0.00  0.00    -0.357 N 
HETATM   14  C   UNK N   1     163.286 159.296 157.605  0.00  0.00     0.091 A 
HETATM   15  C   UNK N   1     164.312 158.060 156.153  0.00  0.00     0.034 A 
HETATM   16  C   UNK N   1     162.335 158.448 157.050  0.00  0.00     0.019 A 
HETATM   17  C   UNK N   1     162.999 157.644 156.125  0.00  0.00     0.028 A 
HETATM   18  O   UNK N   1     168.780 156.853 156.651  0.00  0.00    -0.267 OA
BRANCH  11  19
HETATM   19  C   UNK N   1     165.764 158.389 154.171  0.00  0.00     0.027 C 
HETATM   20  C   UNK N   1     164.960 157.957 152.956  0.00  0.00     0.007 C 
ENDBRANCH  11  19
ENDBRANCH   1   8
BRANCH   4  21
HETATM   21  N   UNK N   1     168.064 153.059 151.563  0.00  0.00    -0.244 N 
HETATM   22  N   UNK N   1     168.665 151.884 151.609  0.00  0.00    -0.297 N 
HETATM   23  C   UNK N   1     168.575 151.328 150.385  0.00  0.00     0.024 A 
ATOM     24  HN  UNK N   1     169.116 151.471 152.424  1.00  0.00     0.187 HD
HETATM   25  C   UNK N   1     169.158 150.010 150.023  0.00  0.00     0.070 C 
HETATM   26  C   UNK N   1     167.884 152.165 149.528  0.00  0.00     0.052 A 
HETATM   27  C   UNK N   1     167.578 153.257 150.316  0.00  0.00     0.034 A 
HETATM   28  C   UNK N   1     166.800 154.444 149.857  0.00  0.00     0.070 C 
ENDBRANCH   4  21
TORSDOF 3
ENDMDL
MODEL 5
REMARK VINA RESULT:      -6.1      4.031      7.721
REMARK  3 active torsions:
REMARK  status: ('A' for Active; 'I' for Inactive)
REMARK    1  A    between atoms: C_3  and  C_2 
REMARK       I    between atoms: N_11  and  C_12 
REMARK    2  A    between atoms: C_12  and  C_14 
REMARK    3  A    between atoms: C_17  and  N_18 
ROOT
HETATM    1  C   UNK N   1     164.443 157.656 155.312  0.00  0.00     0.047 A 
HETATM    2  C   UNK N   1     164.162 158.438 156.440  0.00  0.00     0.022 A 
HETATM    3  C   UNK N   1     163.008 158.203 157.195  0.00  0.00     0.051 A 
HETATM    4  C   UNK N   1     162.117 157.197 156.797  0.00  0.00     0.127 A 
HETATM    5  N   UNK N   1     162.404 156.447 155.700  0.00  0.00    -0.350 N 
ATOM      6  HN  UNK N   1     161.752 155.717 155.414  1.00  0.00     0.166 HD
HETATM    7  C   UNK N   1     163.536 156.640 154.974  0.00  0.00     0.106 A 
ENDROOT
BRANCH   1   8
HETATM    8  C   UNK N   1     165.665 157.834 154.460  0.00  0.00     0.255 C 
HETATM    9  N   UNK N   1     166.718 156.945 154.417  0.00  0.00    -0.336 N 
HETATM   10  C   UNK N   1     167.853 157.279 153.536  0.00  0.00     0.147 C 
HETATM   11  C   UNK N   1     166.778 155.774 155.304  0.00  0.00     0.137 C 
HETATM   12  C   UNK N   1     169.150 156.526 153.874  0.00  0.00     0.148 C 
HETATM   13  N   UNK N   1     168.821 155.135 154.092  0.00  0.00    -0.357 N 
HETATM   14  C   UNK N   1     169.455 154.038 153.653  0.00  0.00     0.091 A 
HETATM   15  C   UNK N   1     167.727 154.759 154.742  0.00  0.00     0.034 A 
HETATM   16  C   UNK N   1     168.729 152.921 154.049  0.00  0.00     0.019 A 
HETATM   17  C   UNK N   1     167.612 153.386 154.738  0.00  0.00     0.028 A 
HETATM   18  O   UNK N   1     165.726 158.849 153.777  0.00  0.00    -0.267 OA
BRANCH  11  19
HETATM   19  C   UNK N   1     167.272 156.240 156.677  0.00  0.00     0.027 C 
HETATM   20  C   UNK N   1     166.419 155.692 157.809  0.00  0.00     0.007 C 
ENDBRANCH  11  19
ENDBRANCH   1   8
BRANCH   4  21
HETATM   21  N   UNK N   1     160.915 156.950 157.553  0.00  0.00    -0.244 N 
HETATM   22  N   UNK N   1     159.721 157.374 157.183  0.00  0.00    -0.297 N 
HETATM   23  C   UNK N   1     158.837 156.989 158.123  0.00  0.00     0.024 A 
ATOM     24  HN  UNK N   1     159.505 157.900 156.336  1.00  0.00     0.187 HD
HETATM   25  C   UNK N   1     157.385 157.302 158.082  0.00  0.00     0.070 C 
HETATM   26  C   UNK N   1     159.480 156.282 159.123  0.00  0.00     0.052 A 
HETATM   27  C   UNK N   1     160.801 156.282 158.724  0.00  0.00     0.034 A 
HETATM   28  C   UNK N   1     161.911 155.612 159.462  0.00  0.00     0.070 C 
ENDBRANCH   4  21
TORSDOF 3
ENDMDL
MODEL 6
REMARK VINA RESULT:      -5.9      3.209      8.424
REMARK  3 active torsions:
REMARK  status: ('A' for Active; 'I' for Inactive)
REMARK    1  A    between atoms: C_3  and  C_2 
REMARK       I    between atoms: N_11  and  C_12 
REMARK    2  A    between atoms: C_12  and  C_14 
REMARK    3  A    between atoms: C_17  and  N_18 
ROOT
HETATM    1  C   UNK N   1     166.496 157.811 157.215  0.00  0.00     0.047 A 
HETATM    2  C   UNK N   1     166.803 158.958 156.470  0.00  0.00     0.022 A 
HETATM    3  C   UNK N   1     165.983 160.089 156.542  0.00  0.00     0.051 A 
HETATM    4  C   UNK N   1     164.833 160.057 157.342  0.00  0.00     0.127 A 
HETATM    5  N   UNK N   1     164.550 158.937 158.059  0.00  0.00    -0.350 N 
ATOM      6  HN  UNK N   1     163.711 158.918 158.638  1.00  0.00     0.166 HD
HETATM    7  C   UNK N   1     165.352 157.841 158.027  0.00  0.00     0.106 A 
ENDROOT
BRANCH   1   8
HETATM    8  C   UNK N   1     167.332 156.565 157.206  0.00  0.00     0.255 C 
HETATM    9  N   UNK N   1     167.362 155.658 156.169  0.00  0.00    -0.336 N 
HETATM   10  C   UNK N   1     168.228 154.473 156.328  0.00  0.00     0.147 C 
HETATM   11  C   UNK N   1     166.475 155.785 155.004  0.00  0.00     0.137 C 
HETATM   12  C   UNK N   1     167.874 153.309 155.389  0.00  0.00     0.148 C 
HETATM   13  N   UNK N   1     167.660 153.846 154.063  0.00  0.00    -0.357 N 
HETATM   14  C   UNK N   1     168.092 153.379 152.883  0.00  0.00     0.091 A 
HETATM   15  C   UNK N   1     167.025 154.992 153.857  0.00  0.00     0.034 A 
HETATM   16  C   UNK N   1     167.706 154.268 151.888  0.00  0.00     0.019 A 
HETATM   17  C   UNK N   1     167.031 155.312 152.517  0.00  0.00     0.028 A 
HETATM   18  O   UNK N   1     168.014 156.343 158.200  0.00  0.00    -0.267 OA
BRANCH  11  19
HETATM   19  C   UNK N   1     165.095 155.245 155.393  0.00  0.00     0.027 C 
HETATM   20  C   UNK N   1     163.967 156.091 154.827  0.00  0.00     0.007 C 
ENDBRANCH  11  19
ENDBRANCH   1   8
BRANCH   4  21
HETATM   21  N   UNK N   1     163.967 161.206 157.416  0.00  0.00    -0.244 N 
HETATM   22  N   UNK N   1     162.880 161.350 156.680  0.00  0.00    -0.297 N 
HETATM   23  C   UNK N   1     162.328 162.539 156.988  0.00  0.00     0.024 A 
ATOM     24  HN  UNK N   1     162.522 160.680 155.999  1.00  0.00     0.187 HD
HETATM   25  C   UNK N   1     161.101 163.079 156.348  0.00  0.00     0.070 C 
HETATM   26  C   UNK N   1     163.075 163.176 157.962  0.00  0.00     0.052 A 
HETATM   27  C   UNK N   1     164.110 162.295 158.206  0.00  0.00     0.034 A 
HETATM   28  C   UNK N   1     165.189 162.511 159.214  0.00  0.00     0.070 C 
ENDBRANCH   4  21
TORSDOF 3
ENDMDL
MODEL 7
REMARK VINA RESULT:      -5.9      2.830      4.133
REMARK  3 active torsions:
REMARK  status: ('A' for Active; 'I' for Inactive)
REMARK    1  A    between atoms: C_3  and  C_2 
REMARK       I    between atoms: N_11  and  C_12 
REMARK    2  A    between atoms: C_12  and  C_14 
REMARK    3  A    between atoms: C_17  and  N_18 
ROOT
HETATM    1  C   UNK N   1     167.942 156.133 156.663  0.00  0.00     0.047 A 
HETATM    2  C   UNK N   1     167.226 154.932 156.768  0.00  0.00     0.022 A 
HETATM    3  C   UNK N   1     167.602 153.816 156.014  0.00  0.00     0.051 A 
HETATM    4  C   UNK N   1     168.682 153.915 155.127  0.00  0.00     0.127 A 
HETATM    5  N   UNK N   1     169.367 155.086 155.037  0.00  0.00    -0.350 N 
ATOM      6  HN  UNK N   1     170.151 155.154 154.390  1.00  0.00     0.166 HD
HETATM    7  C   UNK N   1     169.036 156.171 155.786  0.00  0.00     0.106 A 
ENDROOT
BRANCH   1   8
HETATM    8  C   UNK N   1     167.614 157.368 157.449  0.00  0.00     0.255 C 
HETATM    9  N   UNK N   1     166.473 158.121 157.270  0.00  0.00    -0.336 N 
HETATM   10  C   UNK N   1     166.311 159.319 158.117  0.00  0.00     0.147 C 
HETATM   11  C   UNK N   1     165.512 157.828 156.198  0.00  0.00     0.137 C 
HETATM   12  C   UNK N   1     165.299 160.339 157.571  0.00  0.00     0.148 C 
HETATM   13  N   UNK N   1     164.118 159.620 157.145  0.00  0.00    -0.357 N 
HETATM   14  C   UNK N   1     162.828 159.918 157.350  0.00  0.00     0.091 A 
HETATM   15  C   UNK N   1     164.187 158.454 156.516  0.00  0.00     0.034 A 
HETATM   16  C   UNK N   1     162.049 158.896 156.821  0.00  0.00     0.019 A 
HETATM   17  C   UNK N   1     162.925 157.948 156.297  0.00  0.00     0.028 A 
HETATM   18  O   UNK N   1     168.431 157.730 158.287  0.00  0.00    -0.267 OA
BRANCH  11  19
HETATM   19  C   UNK N   1     166.060 158.412 154.892  0.00  0.00     0.027 C 
HETATM   20  C   UNK N   1     166.009 157.412 153.750  0.00  0.00     0.007 C 
ENDBRANCH  11  19
ENDBRANCH   1   8
BRANCH   4  21
HETATM   21  N   UNK N   1     169.074 152.781 154.330  0.00  0.00    -0.244 N 
HETATM   22  N   UNK N   1     169.776 151.766 154.799  0.00  0.00    -0.297 N 
HETATM   23  C   UNK N   1     169.980 150.902 153.787  0.00  0.00     0.024 A 
ATOM     24  HN  UNK N   1     170.105 151.655 155.758  1.00  0.00     0.187 HD
HETATM   25  C   UNK N   1     170.757 149.641 153.909  0.00  0.00     0.070 C 
HETATM   26  C   UNK N   1     169.380 151.368 152.631  0.00  0.00     0.052 A 
HETATM   27  C   UNK N   1     168.815 152.567 153.019  0.00  0.00     0.034 A 
HETATM   28  C   UNK N   1     168.017 153.458 152.127  0.00  0.00     0.070 C 
ENDBRANCH   4  21
TORSDOF 3
ENDMDL
MODEL 8
REMARK VINA RESULT:      -5.8     13.849     16.631
REMARK  3 active torsions:
REMARK  status: ('A' for Active; 'I' for Inactive)
REMARK    1  A    between atoms: C_3  and  C_2 
REMARK       I    between atoms: N_11  and  C_12 
REMARK    2  A    between atoms: C_12  and  C_14 
REMARK    3  A    between atoms: C_17  and  N_18 
ROOT
HETATM    1  C   UNK N   1     155.578 145.895 159.147  0.00  0.00     0.047 A 
HETATM    2  C   UNK N   1     156.615 144.970 158.965  0.00  0.00     0.022 A 
HETATM    3  C   UNK N   1     157.734 144.987 159.804  0.00  0.00     0.051 A 
HETATM    4  C   UNK N   1     157.826 145.957 160.812  0.00  0.00     0.127 A 
HETATM    5  N   UNK N   1     156.811 146.847 160.976  0.00  0.00    -0.350 N 
ATOM      6  HN  UNK N   1     156.883 147.551 161.710  1.00  0.00     0.166 HD
HETATM    7  C   UNK N   1     155.702 146.824 160.191  0.00  0.00     0.106 A 
ENDROOT
BRANCH   1   8
HETATM    8  C   UNK N   1     154.339 145.933 158.302  0.00  0.00     0.255 C 
HETATM    9  N   UNK N   1     154.310 146.340 156.985  0.00  0.00    -0.336 N 
HETATM   10  C   UNK N   1     153.002 146.332 156.301  0.00  0.00     0.147 C 
HETATM   11  C   UNK N   1     155.501 146.885 156.317  0.00  0.00     0.137 C 
HETATM   12  C   UNK N   1     152.951 147.208 155.039  0.00  0.00     0.148 C 
HETATM   13  N   UNK N   1     154.147 146.956 154.265  0.00  0.00    -0.357 N 
HETATM   14  C   UNK N   1     154.274 146.770 152.943  0.00  0.00     0.091 A 
HETATM   15  C   UNK N   1     155.336 146.794 154.830  0.00  0.00     0.034 A 
HETATM   16  C   UNK N   1     155.604 146.484 152.663  0.00  0.00     0.019 A 
HETATM   17  C   UNK N   1     156.284 146.486 153.879  0.00  0.00     0.028 A 
HETATM   18  O   UNK N   1     153.289 145.594 158.835  0.00  0.00    -0.267 OA
BRANCH  11  19
HETATM   19  C   UNK N   1     155.652 148.352 156.732  0.00  0.00     0.027 C 
HETATM   20  C   UNK N   1     157.076 148.688 157.140  0.00  0.00     0.007 C 
ENDBRANCH  11  19
ENDBRANCH   1   8
BRANCH   4  21
HETATM   21  N   UNK N   1     158.978 146.001 161.676  0.00  0.00    -0.244 N 
HETATM   22  N   UNK N   1     160.020 146.783 161.464  0.00  0.00    -0.297 N 
HETATM   23  C   UNK N   1     160.914 146.555 162.445  0.00  0.00     0.024 A 
ATOM     24  HN  UNK N   1     160.129 147.443 160.694  1.00  0.00     0.187 HD
HETATM   25  C   UNK N   1     162.236 147.225 162.541  0.00  0.00     0.070 C 
HETATM   26  C   UNK N   1     160.427 145.605 163.324  0.00  0.00     0.052 A 
HETATM   27  C   UNK N   1     159.193 145.276 162.798  0.00  0.00     0.034 A 
HETATM   28  C   UNK N   1     158.243 144.300 163.407  0.00  0.00     0.070 C 
ENDBRANCH   4  21
TORSDOF 3
ENDMDL
MODEL 9
REMARK VINA RESULT:      -5.7     13.116     16.057
REMARK  3 active torsions:
REMARK  status: ('A' for Active; 'I' for Inactive)
REMARK    1  A    between atoms: C_3  and  C_2 
REMARK       I    between atoms: N_11  and  C_12 
REMARK    2  A    between atoms: C_12  and  C_14 
REMARK    3  A    between atoms: C_17  and  N_18 
ROOT
HETATM    1  C   UNK N   1     159.252 145.633 160.242  0.00  0.00     0.047 A 
HETATM    2  C   UNK N   1     159.447 145.002 161.478  0.00  0.00     0.022 A 
HETATM    3  C   UNK N   1     160.292 145.570 162.437  0.00  0.00     0.051 A 
HETATM    4  C   UNK N   1     160.969 146.761 162.140  0.00  0.00     0.127 A 
HETATM    5  N   UNK N   1     160.769 147.360 160.936  0.00  0.00    -0.350 N 
ATOM      6  HN  UNK N   1     161.265 148.225 160.724  1.00  0.00     0.166 HD
HETATM    7  C   UNK N   1     159.926 146.840 160.006  0.00  0.00     0.106 A 
ENDROOT
BRANCH   1   8
HETATM    8  C   UNK N   1     158.350 145.097 159.168  0.00  0.00     0.255 C 
HETATM    9  N   UNK N   1     157.044 145.498 158.981  0.00  0.00    -0.336 N 
HETATM   10  C   UNK N   1     156.289 144.858 157.886  0.00  0.00     0.147 C 
HETATM   11  C   UNK N   1     156.379 146.428 159.905  0.00  0.00     0.137 C 
HETATM   12  C   UNK N   1     154.763 144.990 158.018  0.00  0.00     0.148 C 
HETATM   13  N   UNK N   1     154.457 146.359 158.372  0.00  0.00    -0.357 N 
HETATM   14  C   UNK N   1     153.502 147.164 157.885  0.00  0.00     0.091 A 
HETATM   15  C   UNK N   1     155.192 147.050 159.234  0.00  0.00     0.034 A 
HETATM   16  C   UNK N   1     153.638 148.416 158.471  0.00  0.00     0.019 A 
HETATM   17  C   UNK N   1     154.734 148.345 159.329  0.00  0.00     0.028 A 
HETATM   18  O   UNK N   1     158.812 144.235 158.431  0.00  0.00    -0.267 OA
BRANCH  11  19
HETATM   19  C   UNK N   1     155.924 145.635 161.134  0.00  0.00     0.027 C 
HETATM   20  C   UNK N   1     154.868 146.377 161.936  0.00  0.00     0.007 C 
ENDBRANCH  11  19
ENDBRANCH   1   8
BRANCH   4  21
HETATM   21  N   UNK N   1     161.857 147.353 163.108  0.00  0.00    -0.244 N 
HETATM   22  N   UNK N   1     163.140 147.572 162.884  0.00  0.00    -0.297 N 
HETATM   23  C   UNK N   1     163.667 148.111 163.999  0.00  0.00     0.024 A 
ATOM     24  HN  UNK N   1     163.642 147.368 162.020  1.00  0.00     0.187 HD
HETATM   25  C   UNK N   1     165.100 148.474 164.154  0.00  0.00     0.070 C 
HETATM   26  C   UNK N   1     162.691 148.257 164.968  0.00  0.00     0.052 A 
HETATM   27  C   UNK N   1     161.554 147.761 164.362  0.00  0.00     0.034 A 
HETATM   28  C   UNK N   1     160.203 147.724 164.993  0.00  0.00     0.070 C 
ENDBRANCH   4  21
TORSDOF 3
ENDMDL
