MODEL 1
REMARK VINA RESULT:      -6.3      0.000      0.000
REMARK  4 active torsions:
REMARK  status: ('A' for Active; 'I' for Inactive)
REMARK    1  A    between atoms: C_2  and  C_3 
REMARK       I    between atoms: C_2  and  N_13 
REMARK    2  A    between atoms: C_16  and  S_17 
REMARK    3  A    between atoms: S_17  and  N_20 
REMARK    4  A    between atoms: N_20  and  C_21 
ROOT
HETATM    1  O   UNK N   1     167.921 157.186 153.288  0.00  0.00    -0.267 OA
HETATM    2  C   UNK N   1     167.345 156.140 153.555  0.00  0.00     0.253 C 
HETATM    3  N   UNK N   1     166.529 156.092 154.657  0.00  0.00    -0.347 N 
HETATM    4  C   UNK N   1     166.355 157.217 155.536  0.00  0.00     0.127 C 
HETATM    5  C   UNK N   1     165.490 156.682 156.672  0.00  0.00     0.043 C 
HETATM    6  C   UNK N   1     164.812 155.450 156.091  0.00  0.00     0.143 C 
HETATM    7  C   UNK N   1     165.743 154.950 155.019  0.00  0.00     0.147 C 
ENDROOT
BRANCH   2   8
HETATM    8  C   UNK N   1     167.551 154.963 152.648  0.00  0.00     0.034 A 
HETATM    9  C   UNK N   1     168.361 153.874 153.083  0.00  0.00     0.019 A 
HETATM   10  C   UNK N   1     168.586 152.757 152.249  0.00  0.00     0.034 A 
HETATM   11  C   UNK N   1     167.974 152.764 151.000  0.00  0.00     0.074 A 
HETATM   12  N   UNK N   1     168.016 151.845 150.026  0.00  0.00    -0.282 N 
HETATM   13  C   UNK N   1     167.193 153.785 150.586  0.00  0.00     0.074 A 
HETATM   14  N   UNK N   1     167.260 152.318 149.035  0.00  0.00    -0.022 NA
HETATM   15  H   UNK N   1     168.508 150.992 150.039  0.00  0.00     0.184 HD
HETATM   16  N   UNK N   1     166.745 153.504 149.355  0.00  0.00    -0.282 N 
ATOM     17  HN  UNK N   1     166.133 154.081 148.779  1.00  0.00     0.184 HD
HETATM   18  C   UNK N   1     166.954 154.900 151.367  0.00  0.00     0.050 A 
ENDBRANCH   2   8
BRANCH   6  19
HETATM   19  S   UNK N   1     164.545 154.142 157.319  0.00  0.00     0.215 S 
HETATM   20  O   UNK N   1     164.629 152.734 156.713  0.00  0.00    -0.211 OA
HETATM   21  O   UNK N   1     165.677 154.080 158.358  0.00  0.00    -0.211 OA
BRANCH  19  22
HETATM   22  N   UNK N   1     163.055 154.148 158.270  0.00  0.00    -0.215 NA
HETATM   23  H   UNK N   1     162.681 153.203 158.360  0.00  0.00     0.140 HD
BRANCH  22  24
HETATM   24  C   UNK N   1     163.378 154.698 159.575  0.00  0.00     0.071 A 
HETATM   25  C   UNK N   1     162.964 156.154 159.618  0.00  0.00     0.022 A 
HETATM   26  C   UNK N   1     162.099 155.105 160.279  0.00  0.00     0.022 A 
ENDBRANCH  22  24
ENDBRANCH  19  22
ENDBRANCH   6  19
TORSDOF 4
ENDMDL
MODEL 2
REMARK VINA RESULT:      -6.3      3.435      7.723
REMARK  4 active torsions:
REMARK  status: ('A' for Active; 'I' for Inactive)
REMARK    1  A    between atoms: C_2  and  C_3 
REMARK       I    between atoms: C_2  and  N_13 
REMARK    2  A    between atoms: C_16  and  S_17 
REMARK    3  A    between atoms: S_17  and  N_20 
REMARK    4  A    between atoms: N_20  and  C_21 
ROOT
HETATM    1  O   UNK N   1     165.488 155.903 158.435  0.00  0.00    -0.267 OA
HETATM    2  C   UNK N   1     166.132 156.315 157.479  0.00  0.00     0.253 C 
HETATM    3  N   UNK N   1     166.509 155.433 156.499  0.00  0.00    -0.347 N 
HETATM    4  C   UNK N   1     166.209 154.028 156.571  0.00  0.00     0.127 C 
HETATM    5  C   UNK N   1     166.919 153.425 155.365  0.00  0.00     0.043 C 
HETATM    6  C   UNK N   1     167.130 154.598 154.417  0.00  0.00     0.143 C 
HETATM    7  C   UNK N   1     167.192 155.816 155.299  0.00  0.00     0.147 C 
ENDROOT
BRANCH   2   8
HETATM    8  C   UNK N   1     166.464 157.778 157.423  0.00  0.00     0.034 A 
HETATM    9  C   UNK N   1     167.563 158.279 158.178  0.00  0.00     0.019 A 
HETATM   10  C   UNK N   1     167.893 159.651 158.158  0.00  0.00     0.034 A 
HETATM   11  C   UNK N   1     167.111 160.481 157.363  0.00  0.00     0.074 A 
HETATM   12  N   UNK N   1     167.204 161.803 157.161  0.00  0.00    -0.282 N 
HETATM   13  C   UNK N   1     166.076 160.012 156.632  0.00  0.00     0.074 A 
HETATM   14  N   UNK N   1     166.227 162.118 156.311  0.00  0.00    -0.022 NA
HETATM   15  H   UNK N   1     167.861 162.416 157.561  0.00  0.00     0.184 HD
HETATM   16  N   UNK N   1     165.524 161.039 155.972  0.00  0.00    -0.282 N 
ATOM     17  HN  UNK N   1     164.727 161.002 155.338  1.00  0.00     0.184 HD
HETATM   18  C   UNK N   1     165.714 158.679 156.630  0.00  0.00     0.050 A 
ENDBRANCH   2   8
BRANCH   6  19
HETATM   19  S   UNK N   1     168.665 154.467 153.458  0.00  0.00     0.215 S 
HETATM   20  O   UNK N   1     168.413 154.144 151.979  0.00  0.00    -0.211 OA
HETATM   21  O   UNK N   1     169.396 155.815 153.343  0.00  0.00    -0.211 OA
BRANCH  19  22
HETATM   22  N   UNK N   1     169.906 153.320 153.978  0.00  0.00    -0.215 NA
HETATM   23  H   UNK N   1     169.966 153.291 154.996  0.00  0.00     0.140 HD
BRANCH  22  24
HETATM   24  C   UNK N   1     169.539 152.018 153.448  0.00  0.00     0.071 A 
HETATM   25  C   UNK N   1     170.767 151.132 153.411  0.00  0.00     0.022 A 
HETATM   26  C   UNK N   1     169.750 150.965 154.517  0.00  0.00     0.022 A 
ENDBRANCH  22  24
ENDBRANCH  19  22
ENDBRANCH   6  19
TORSDOF 4
ENDMDL
MODEL 3
REMARK VINA RESULT:      -6.2      3.986      5.435
REMARK  4 active torsions:
REMARK  status: ('A' for Active; 'I' for Inactive)
REMARK    1  A    between atoms: C_2  and  C_3 
REMARK       I    between atoms: C_2  and  N_13 
REMARK    2  A    between atoms: C_16  and  S_17 
REMARK    3  A    between atoms: S_17  and  N_20 
REMARK    4  A    between atoms: N_20  and  C_21 
ROOT
HETATM    1  O   UNK N   1     168.865 151.031 156.483  0.00  0.00    -0.267 OA
HETATM    2  C   UNK N   1     169.014 151.587 155.402  0.00  0.00     0.253 C 
HETATM    3  N   UNK N   1     168.827 152.943 155.320  0.00  0.00    -0.347 N 
HETATM    4  C   UNK N   1     168.423 153.735 156.451  0.00  0.00     0.127 C 
HETATM    5  C   UNK N   1     168.211 155.133 155.881  0.00  0.00     0.043 C 
HETATM    6  C   UNK N   1     169.010 155.144 154.585  0.00  0.00     0.143 C 
HETATM    7  C   UNK N   1     169.052 153.710 154.131  0.00  0.00     0.147 C 
ENDROOT
BRANCH   2   8
HETATM    8  C   UNK N   1     169.410 150.751 154.221  0.00  0.00     0.034 A 
HETATM    9  C   UNK N   1     170.790 150.582 153.911  0.00  0.00     0.019 A 
HETATM   10  C   UNK N   1     171.196 149.812 152.799  0.00  0.00     0.034 A 
HETATM   11  C   UNK N   1     170.195 149.222 152.036  0.00  0.00     0.074 A 
HETATM   12  N   UNK N   1     170.299 148.450 150.945  0.00  0.00    -0.282 N 
HETATM   13  C   UNK N   1     168.885 149.364 152.331  0.00  0.00     0.074 A 
HETATM   14  N   UNK N   1     169.052 148.133 150.594  0.00  0.00    -0.022 NA
HETATM   15  H   UNK N   1     171.128 148.174 150.494  0.00  0.00     0.184 HD
HETATM   16  N   UNK N   1     168.170 148.681 151.429  0.00  0.00    -0.282 N 
ATOM     17  HN  UNK N   1     167.155 148.596 151.387  1.00  0.00     0.184 HD
HETATM   18  C   UNK N   1     168.445 150.115 153.405  0.00  0.00     0.050 A 
ENDBRANCH   2   8
BRANCH   6  19
HETATM   19  S   UNK N   1     168.249 156.166 153.293  0.00  0.00     0.215 S 
HETATM   20  O   UNK N   1     169.174 157.290 152.805  0.00  0.00    -0.211 OA
HETATM   21  O   UNK N   1     168.027 155.383 151.988  0.00  0.00    -0.211 OA
BRANCH  19  22
HETATM   22  N   UNK N   1     166.699 156.951 153.621  0.00  0.00    -0.215 NA
HETATM   23  H   UNK N   1     166.647 157.854 153.150  0.00  0.00     0.140 HD
BRANCH  22  24
HETATM   24  C   UNK N   1     165.655 156.061 153.145  0.00  0.00     0.071 A 
HETATM   25  C   UNK N   1     164.491 156.096 154.112  0.00  0.00     0.022 A 
HETATM   26  C   UNK N   1     164.418 156.871 152.815  0.00  0.00     0.022 A 
ENDBRANCH  22  24
ENDBRANCH  19  22
ENDBRANCH   6  19
TORSDOF 4
ENDMDL
MODEL 4
REMARK VINA RESULT:      -6.1      3.594      6.664
REMARK  4 active torsions:
REMARK  status: ('A' for Active; 'I' for Inactive)
REMARK    1  A    between atoms: C_2  and  C_3 
REMARK       I    between atoms: C_2  and  N_13 
REMARK    2  A    between atoms: C_16  and  S_17 
REMARK    3  A    between atoms: S_17  and  N_20 
REMARK    4  A    between atoms: N_20  and  C_21 
ROOT
HETATM    1  O   UNK N   1     167.492 154.706 150.767  0.00  0.00    -0.267 OA
HETATM    2  C   UNK N   1     167.558 154.603 151.985  0.00  0.00     0.253 C 
HETATM    3  N   UNK N   1     168.155 153.494 152.528  0.00  0.00    -0.347 N 
HETATM    4  C   UNK N   1     168.674 152.424 151.718  0.00  0.00     0.127 C 
HETATM    5  C   UNK N   1     169.113 151.365 152.722  0.00  0.00     0.043 C 
HETATM    6  C   UNK N   1     169.290 152.125 154.029  0.00  0.00     0.143 C 
HETATM    7  C   UNK N   1     168.361 153.305 153.933  0.00  0.00     0.147 C 
ENDROOT
BRANCH   2   8
HETATM    8  C   UNK N   1     166.991 155.710 152.824  0.00  0.00     0.034 A 
HETATM    9  C   UNK N   1     167.846 156.755 153.280  0.00  0.00     0.019 A 
HETATM   10  C   UNK N   1     167.347 157.804 154.082  0.00  0.00     0.034 A 
HETATM   11  C   UNK N   1     165.991 157.777 154.392  0.00  0.00     0.074 A 
HETATM   12  N   UNK N   1     165.267 158.636 155.123  0.00  0.00    -0.282 N 
HETATM   13  C   UNK N   1     165.172 156.799 153.953  0.00  0.00     0.074 A 
HETATM   14  N   UNK N   1     164.019 158.169 155.116  0.00  0.00    -0.022 NA
HETATM   15  H   UNK N   1     165.593 159.448 155.574  0.00  0.00     0.184 HD
HETATM   16  N   UNK N   1     163.935 157.046 154.405  0.00  0.00    -0.282 N 
ATOM     17  HN  UNK N   1     163.099 156.487 154.240  1.00  0.00     0.184 HD
HETATM   18  C   UNK N   1     165.620 155.749 153.173  0.00  0.00     0.050 A 
ENDBRANCH   2   8
BRANCH   6  19
HETATM   19  S   UNK N   1     168.861 151.134 155.488  0.00  0.00     0.215 S 
HETATM   20  O   UNK N   1     168.829 151.964 156.779  0.00  0.00    -0.211 OA
HETATM   21  O   UNK N   1     167.414 150.618 155.435  0.00  0.00    -0.211 OA
BRANCH  19  22
HETATM   22  N   UNK N   1     169.837 149.711 155.876  0.00  0.00    -0.215 NA
HETATM   23  H   UNK N   1     169.928 149.603 156.886  0.00  0.00     0.140 HD
BRANCH  22  24
HETATM   24  C   UNK N   1     169.171 148.559 155.293  0.00  0.00     0.071 A 
HETATM   25  C   UNK N   1     170.004 148.031 154.144  0.00  0.00     0.022 A 
HETATM   26  C   UNK N   1     170.036 147.331 155.484  0.00  0.00     0.022 A 
ENDBRANCH  22  24
ENDBRANCH  19  22
ENDBRANCH   6  19
TORSDOF 4
ENDMDL
MODEL 5
REMARK VINA RESULT:      -5.9     11.630     13.100
REMARK  4 active torsions:
REMARK  status: ('A' for Active; 'I' for Inactive)
REMARK    1  A    between atoms: C_2  and  C_3 
REMARK       I    between atoms: C_2  and  N_13 
REMARK    2  A    between atoms: C_16  and  S_17 
REMARK    3  A    between atoms: S_17  and  N_20 
REMARK    4  A    between atoms: N_20  and  C_21 
ROOT
HETATM    1  O   UNK N   1     156.213 144.918 160.957  0.00  0.00    -0.267 OA
HETATM    2  C   UNK N   1     157.230 145.540 160.681  0.00  0.00     0.253 C 
HETATM    3  N   UNK N   1     158.285 145.514 161.557  0.00  0.00    -0.347 N 
HETATM    4  C   UNK N   1     158.227 144.812 162.811  0.00  0.00     0.127 C 
HETATM    5  C   UNK N   1     159.541 145.159 163.502  0.00  0.00     0.043 C 
HETATM    6  C   UNK N   1     160.462 145.604 162.375  0.00  0.00     0.143 C 
HETATM    7  C   UNK N   1     159.550 146.136 161.302  0.00  0.00     0.147 C 
ENDROOT
BRANCH   2   8
HETATM    8  C   UNK N   1     157.274 146.291 159.383  0.00  0.00     0.034 A 
HETATM    9  C   UNK N   1     157.786 145.653 158.217  0.00  0.00     0.019 A 
HETATM   10  C   UNK N   1     157.853 146.336 156.983  0.00  0.00     0.034 A 
HETATM   11  C   UNK N   1     157.386 147.645 156.957  0.00  0.00     0.074 A 
HETATM   12  N   UNK N   1     157.332 148.509 155.934  0.00  0.00    -0.282 N 
HETATM   13  C   UNK N   1     156.886 148.254 158.053  0.00  0.00     0.074 A 
HETATM   14  N   UNK N   1     156.799 149.629 156.422  0.00  0.00    -0.022 NA
HETATM   15  H   UNK N   1     157.628 148.349 155.009  0.00  0.00     0.184 HD
HETATM   16  N   UNK N   1     156.516 149.497 157.716  0.00  0.00    -0.282 N 
ATOM     17  HN  UNK N   1     156.102 150.200 158.328  1.00  0.00     0.184 HD
HETATM   18  C   UNK N   1     156.810 147.625 159.281  0.00  0.00     0.050 A 
ENDBRANCH   2   8
BRANCH   6  19
HETATM   19  S   UNK N   1     161.623 146.903 162.880  0.00  0.00     0.215 S 
HETATM   20  O   UNK N   1     162.256 147.630 161.685  0.00  0.00    -0.211 OA
HETATM   21  O   UNK N   1     160.918 148.069 163.592  0.00  0.00    -0.211 OA
BRANCH  19  22
HETATM   22  N   UNK N   1     162.979 146.480 163.934  0.00  0.00    -0.215 NA
HETATM   23  H   UNK N   1     163.591 145.803 163.478  0.00  0.00     0.140 HD
BRANCH  22  24
HETATM   24  C   UNK N   1     163.697 147.708 164.227  0.00  0.00     0.071 A 
HETATM   25  C   UNK N   1     163.675 147.953 165.721  0.00  0.00     0.022 A 
HETATM   26  C   UNK N   1     164.916 147.387 165.068  0.00  0.00     0.022 A 
ENDBRANCH  22  24
ENDBRANCH  19  22
ENDBRANCH   6  19
TORSDOF 4
ENDMDL
MODEL 6
REMARK VINA RESULT:      -5.9      3.131      4.174
REMARK  4 active torsions:
REMARK  status: ('A' for Active; 'I' for Inactive)
REMARK    1  A    between atoms: C_2  and  C_3 
REMARK       I    between atoms: C_2  and  N_13 
REMARK    2  A    between atoms: C_16  and  S_17 
REMARK    3  A    between atoms: S_17  and  N_20 
REMARK    4  A    between atoms: N_20  and  C_21 
ROOT
HETATM    1  O   UNK N   1     167.576 159.192 157.984  0.00  0.00    -0.267 OA
HETATM    2  C   UNK N   1     166.987 158.183 157.619  0.00  0.00     0.253 C 
HETATM    3  N   UNK N   1     165.973 157.686 158.397  0.00  0.00    -0.347 N 
HETATM    4  C   UNK N   1     165.598 158.286 159.649  0.00  0.00     0.127 C 
HETATM    5  C   UNK N   1     164.543 157.346 160.220  0.00  0.00     0.043 C 
HETATM    6  C   UNK N   1     164.026 156.571 159.016  0.00  0.00     0.143 C 
HETATM    7  C   UNK N   1     165.163 156.562 158.030  0.00  0.00     0.147 C 
ENDROOT
BRANCH   2   8
HETATM    8  C   UNK N   1     167.401 157.548 156.324  0.00  0.00     0.034 A 
HETATM    9  C   UNK N   1     166.806 157.984 155.105  0.00  0.00     0.019 A 
HETATM   10  C   UNK N   1     167.164 157.398 153.871  0.00  0.00     0.034 A 
HETATM   11  C   UNK N   1     168.124 156.394 153.900  0.00  0.00     0.074 A 
HETATM   12  N   UNK N   1     168.642 155.681 152.890  0.00  0.00    -0.282 N 
HETATM   13  C   UNK N   1     168.704 155.984 155.048  0.00  0.00     0.074 A 
HETATM   14  N   UNK N   1     169.528 154.850 153.438  0.00  0.00    -0.022 NA
HETATM   15  H   UNK N   1     168.412 155.756 151.936  0.00  0.00     0.184 HD
HETATM   16  N   UNK N   1     169.585 155.017 154.758  0.00  0.00    -0.282 N 
ATOM     17  HN  UNK N   1     170.178 154.512 155.414  1.00  0.00     0.184 HD
HETATM   18  C   UNK N   1     168.377 156.524 156.278  0.00  0.00     0.050 A 
ENDBRANCH   2   8
BRANCH   6  19
HETATM   19  S   UNK N   1     163.560 154.865 159.418  0.00  0.00     0.215 S 
HETATM   20  O   UNK N   1     163.915 153.875 158.301  0.00  0.00    -0.211 OA
HETATM   21  O   UNK N   1     164.383 154.297 160.586  0.00  0.00    -0.211 OA
BRANCH  19  22
HETATM   22  N   UNK N   1     161.878 154.510 159.833  0.00  0.00    -0.215 NA
HETATM   23  H   UNK N   1     161.829 153.778 160.542  0.00  0.00     0.140 HD
BRANCH  22  24
HETATM   24  C   UNK N   1     161.286 155.742 160.326  0.00  0.00     0.071 A 
HETATM   25  C   UNK N   1     160.010 156.022 159.560  0.00  0.00     0.022 A 
HETATM   26  C   UNK N   1     159.941 155.436 160.952  0.00  0.00     0.022 A 
ENDBRANCH  22  24
ENDBRANCH  19  22
ENDBRANCH   6  19
TORSDOF 4
ENDMDL
MODEL 7
REMARK VINA RESULT:      -5.9      3.020      7.095
REMARK  4 active torsions:
REMARK  status: ('A' for Active; 'I' for Inactive)
REMARK    1  A    between atoms: C_2  and  C_3 
REMARK       I    between atoms: C_2  and  N_13 
REMARK    2  A    between atoms: C_16  and  S_17 
REMARK    3  A    between atoms: S_17  and  N_20 
REMARK    4  A    between atoms: N_20  and  C_21 
ROOT
HETATM    1  O   UNK N   1     164.861 156.649 152.422  0.00  0.00    -0.267 OA
HETATM    2  C   UNK N   1     165.133 156.167 153.514  0.00  0.00     0.253 C 
HETATM    3  N   UNK N   1     166.256 155.390 153.638  0.00  0.00    -0.347 N 
HETATM    4  C   UNK N   1     167.111 155.088 152.521  0.00  0.00     0.127 C 
HETATM    5  C   UNK N   1     168.136 154.108 153.081  0.00  0.00     0.043 C 
HETATM    6  C   UNK N   1     168.100 154.333 154.586  0.00  0.00     0.143 C 
HETATM    7  C   UNK N   1     166.715 154.842 154.880  0.00  0.00     0.147 C 
ENDROOT
BRANCH   2   8
HETATM    8  C   UNK N   1     164.222 156.465 154.669  0.00  0.00     0.034 A 
HETATM    9  C   UNK N   1     164.462 157.616 155.474  0.00  0.00     0.019 A 
HETATM   10  C   UNK N   1     163.632 157.918 156.575  0.00  0.00     0.034 A 
HETATM   11  C   UNK N   1     162.572 157.054 156.827  0.00  0.00     0.074 A 
HETATM   12  N   UNK N   1     161.642 157.105 157.792  0.00  0.00    -0.282 N 
HETATM   13  C   UNK N   1     162.329 155.970 156.061  0.00  0.00     0.074 A 
HETATM   14  N   UNK N   1     160.848 156.053 157.598  0.00  0.00    -0.022 NA
HETATM   15  H   UNK N   1     161.564 157.783 158.501  0.00  0.00     0.184 HD
HETATM   16  N   UNK N   1     161.247 155.343 156.544  0.00  0.00    -0.282 N 
ATOM     17  HN  UNK N   1     160.817 154.495 156.178  1.00  0.00     0.184 HD
HETATM   18  C   UNK N   1     163.121 155.633 154.980  0.00  0.00     0.050 A 
ENDBRANCH   2   8
BRANCH   6  19
HETATM   19  S   UNK N   1     168.401 152.817 155.536  0.00  0.00     0.215 S 
HETATM   20  O   UNK N   1     168.443 153.065 157.051  0.00  0.00    -0.211 OA
HETATM   21  O   UNK N   1     167.231 151.825 155.435  0.00  0.00    -0.211 OA
BRANCH  19  22
HETATM   22  N   UNK N   1     169.844 151.856 155.185  0.00  0.00    -0.215 NA
HETATM   23  H   UNK N   1     170.276 151.527 156.048  0.00  0.00     0.140 HD
BRANCH  22  24
HETATM   24  C   UNK N   1     169.425 150.735 154.361  0.00  0.00     0.071 A 
HETATM   25  C   UNK N   1     169.992 150.904 152.967  0.00  0.00     0.022 A 
HETATM   26  C   UNK N   1     170.645 149.943 153.935  0.00  0.00     0.022 A 
ENDBRANCH  22  24
ENDBRANCH  19  22
ENDBRANCH   6  19
TORSDOF 4
ENDMDL
MODEL 8
REMARK VINA RESULT:      -5.9      4.342      7.565
REMARK  4 active torsions:
REMARK  status: ('A' for Active; 'I' for Inactive)
REMARK    1  A    between atoms: C_2  and  C_3 
REMARK       I    between atoms: C_2  and  N_13 
REMARK    2  A    between atoms: C_16  and  S_17 
REMARK    3  A    between atoms: S_17  and  N_20 
REMARK    4  A    between atoms: N_20  and  C_21 
ROOT
HETATM    1  O   UNK N   1     167.805 153.066 156.220  0.00  0.00    -0.267 OA
HETATM    2  C   UNK N   1     168.165 152.620 155.138  0.00  0.00     0.253 C 
HETATM    3  N   UNK N   1     167.863 153.316 153.996  0.00  0.00    -0.347 N 
HETATM    4  C   UNK N   1     167.102 154.537 154.017  0.00  0.00     0.127 C 
HETATM    5  C   UNK N   1     166.896 154.882 152.547  0.00  0.00     0.043 C 
HETATM    6  C   UNK N   1     167.993 154.120 151.816  0.00  0.00     0.143 C 
HETATM    7  C   UNK N   1     168.301 152.932 152.687  0.00  0.00     0.147 C 
ENDROOT
BRANCH   2   8
HETATM    8  C   UNK N   1     168.935 151.332 155.122  0.00  0.00     0.034 A 
HETATM    9  C   UNK N   1     170.330 151.351 154.832  0.00  0.00     0.019 A 
HETATM   10  C   UNK N   1     171.081 150.156 154.796  0.00  0.00     0.034 A 
HETATM   11  C   UNK N   1     170.404 148.972 155.068  0.00  0.00     0.074 A 
HETATM   12  N   UNK N   1     170.868 147.715 155.103  0.00  0.00    -0.282 N 
HETATM   13  C   UNK N   1     169.086 148.946 155.358  0.00  0.00     0.074 A 
HETATM   14  N   UNK N   1     169.826 146.944 155.415  0.00  0.00    -0.022 NA
HETATM   15  H   UNK N   1     171.791 147.421 154.932  0.00  0.00     0.184 HD
HETATM   16  N   UNK N   1     168.725 147.675 155.577  0.00  0.00    -0.282 N 
ATOM     17  HN  UNK N   1     167.795 147.336 155.819  1.00  0.00     0.184 HD
HETATM   18  C   UNK N   1     168.312 150.091 155.396  0.00  0.00     0.050 A 
ENDBRANCH   2   8
BRANCH   6  19
HETATM   19  S   UNK N   1     167.483 153.547 150.171  0.00  0.00     0.215 S 
HETATM   20  O   UNK N   1     166.111 154.094 149.753  0.00  0.00    -0.211 OA
HETATM   21  O   UNK N   1     168.377 154.113 149.056  0.00  0.00    -0.211 OA
BRANCH  19  22
HETATM   22  N   UNK N   1     167.405 151.810 149.854  0.00  0.00    -0.215 NA
HETATM   23  H   UNK N   1     166.656 151.598 149.195  0.00  0.00     0.140 HD
BRANCH  22  24
HETATM   24  C   UNK N   1     168.693 151.412 149.311  0.00  0.00     0.071 A 
HETATM   25  C   UNK N   1     169.399 150.519 150.309  0.00  0.00     0.022 A 
HETATM   26  C   UNK N   1     168.709 149.911 149.109  0.00  0.00     0.022 A 
ENDBRANCH  22  24
ENDBRANCH  19  22
ENDBRANCH   6  19
TORSDOF 4
ENDMDL
MODEL 9
REMARK VINA RESULT:      -5.9      4.532      5.819
REMARK  4 active torsions:
REMARK  status: ('A' for Active; 'I' for Inactive)
REMARK    1  A    between atoms: C_2  and  C_3 
REMARK       I    between atoms: C_2  and  N_13 
REMARK    2  A    between atoms: C_16  and  S_17 
REMARK    3  A    between atoms: S_17  and  N_20 
REMARK    4  A    between atoms: N_20  and  C_21 
ROOT
HETATM    1  O   UNK N   1     168.557 156.787 158.129  0.00  0.00    -0.267 OA
HETATM    2  C   UNK N   1     167.896 157.423 157.319  0.00  0.00     0.253 C 
HETATM    3  N   UNK N   1     167.544 158.715 157.614  0.00  0.00    -0.347 N 
HETATM    4  C   UNK N   1     167.891 159.341 158.862  0.00  0.00     0.127 C 
HETATM    5  C   UNK N   1     167.196 160.697 158.814  0.00  0.00     0.043 C 
HETATM    6  C   UNK N   1     166.941 160.945 157.333  0.00  0.00     0.143 C 
HETATM    7  C   UNK N   1     166.843 159.578 156.711  0.00  0.00     0.147 C 
ENDROOT
BRANCH   2   8
HETATM    8  C   UNK N   1     167.516 156.755 156.030  0.00  0.00     0.034 A 
HETATM    9  C   UNK N   1     166.178 156.304 155.839  0.00  0.00     0.019 A 
HETATM   10  C   UNK N   1     165.791 155.660 154.644  0.00  0.00     0.034 A 
HETATM   11  C   UNK N   1     166.765 155.501 153.665  0.00  0.00     0.074 A 
HETATM   12  N   UNK N   1     166.670 154.935 152.453  0.00  0.00    -0.282 N 
HETATM   13  C   UNK N   1     168.031 155.937 153.831  0.00  0.00     0.074 A 
HETATM   14  N   UNK N   1     167.879 155.037 151.900  0.00  0.00    -0.022 NA
HETATM   15  H   UNK N   1     165.870 154.526 152.054  0.00  0.00     0.184 HD
HETATM   16  N   UNK N   1     168.728 155.648 152.724  0.00  0.00    -0.282 N 
ATOM     17  HN  UNK N   1     169.711 155.854 152.548  1.00  0.00     0.184 HD
HETATM   18  C   UNK N   1     168.454 156.564 154.988  0.00  0.00     0.050 A 
ENDBRANCH   2   8
BRANCH   6  19
HETATM   19  S   UNK N   1     165.408 161.863 157.022  0.00  0.00     0.215 S 
HETATM   20  O   UNK N   1     165.420 162.599 155.676  0.00  0.00    -0.211 OA
HETATM   21  O   UNK N   1     164.200 160.931 156.834  0.00  0.00    -0.211 OA
BRANCH  19  22
HETATM   22  N   UNK N   1     164.873 163.067 158.203  0.00  0.00    -0.215 NA
HETATM   23  H   UNK N   1     164.683 163.958 157.746  0.00  0.00     0.140 HD
BRANCH  22  24
HETATM   24  C   UNK N   1     163.673 162.547 158.835  0.00  0.00     0.071 A 
HETATM   25  C   UNK N   1     164.034 161.967 160.187  0.00  0.00     0.022 A 
HETATM   26  C   UNK N   1     163.392 163.334 160.099  0.00  0.00     0.022 A 
ENDBRANCH  22  24
ENDBRANCH  19  22
ENDBRANCH   6  19
TORSDOF 4
ENDMDL
