MODEL 1
REMARK VINA RESULT:      -7.6      0.000      0.000
REMARK  4 active torsions:
REMARK  status: ('A' for Active; 'I' for Inactive)
REMARK    1  A    between atoms: C_3  and  C_2 
REMARK       I    between atoms: N_11  and  C_12 
REMARK    2  A    between atoms: C_12  and  C_14 
REMARK    3  A    between atoms: C_14  and  N_15 
REMARK    4  A    between atoms: C_19  and  C_21 
ROOT
HETATM    1  N   UNK N   1     168.758 150.404 154.965  0.00  0.00    -0.259 N 
HETATM    2  C   UNK N   1     167.813 149.461 154.938  0.00  0.00     0.326 A 
HETATM    3  O   UNK N   1     166.701 149.598 155.425  0.00  0.00    -0.247 OA
HETATM    4  N   UNK N   1     168.196 148.354 154.274  0.00  0.00    -0.321 N 
HETATM    5  C   UNK N   1     169.535 148.563 153.727  0.00  0.00     0.140 A 
HETATM    6  C   UNK N   1     170.498 147.501 154.234  0.00  0.00     0.054 C 
HETATM    7  C   UNK N   1     169.823 149.936 154.299  0.00  0.00     0.261 A 
HETATM    8  O   UNK N   1     170.844 150.584 154.114  0.00  0.00    -0.270 OA
HETATM    9  H   UNK N   1     167.659 147.535 154.173  0.00  0.00     0.165 HD
ENDROOT
BRANCH   1  10
HETATM   10  C   UNK N   1     168.580 151.763 155.428  0.00  0.00     0.239 C 
BRANCH  10  11
HETATM   11  C   UNK N   1     168.111 152.847 154.476  0.00  0.00     0.239 C 
HETATM   12  N   UNK N   1     167.271 153.887 154.802  0.00  0.00    -0.339 N 
HETATM   13  C   UNK N   1     166.723 154.000 156.153  0.00  0.00     0.147 C 
HETATM   14  C   UNK N   1     166.797 154.772 153.720  0.00  0.00     0.137 C 
HETATM   15  C   UNK N   1     166.337 155.428 156.545  0.00  0.00     0.148 C 
HETATM   16  N   UNK N   1     165.586 156.041 155.467  0.00  0.00    -0.357 N 
HETATM   17  C   UNK N   1     164.637 156.985 155.557  0.00  0.00     0.091 A 
HETATM   18  C   UNK N   1     165.787 155.775 154.180  0.00  0.00     0.034 A 
HETATM   19  C   UNK N   1     164.220 157.323 154.275  0.00  0.00     0.019 A 
HETATM   20  C   UNK N   1     164.963 156.549 153.392  0.00  0.00     0.028 A 
HETATM   21  O   UNK N   1     168.483 152.725 153.318  0.00  0.00    -0.271 OA
BRANCH  14  22
HETATM   22  C   UNK N   1     167.945 155.483 152.989  0.00  0.00     0.027 C 
HETATM   23  C   UNK N   1     168.705 156.435 153.898  0.00  0.00     0.007 C 
ENDBRANCH  14  22
ENDBRANCH  10  11
ENDBRANCH   1  10
BRANCH   5  24
HETATM   24  C   UNK N   1     169.502 148.657 152.212  0.00  0.00    -0.021 A 
HETATM   25  C   UNK N   1     170.674 148.956 151.497  0.00  0.00     0.013 A 
HETATM   26  C   UNK N   1     170.625 149.167 150.116  0.00  0.00     0.043 A 
HETATM   27  C   UNK N   1     169.406 149.082 149.437  0.00  0.00     0.116 A 
HETATM   28  F   UNK N   1     169.354 149.316 148.104  0.00  0.00    -0.206 F 
HETATM   29  C   UNK N   1     168.238 148.766 150.135  0.00  0.00     0.043 A 
HETATM   30  C   UNK N   1     168.285 148.557 151.515  0.00  0.00     0.013 A 
ENDBRANCH   5  24
TORSDOF 4
ENDMDL
MODEL 2
REMARK VINA RESULT:      -7.1      2.448      3.521
REMARK  4 active torsions:
REMARK  status: ('A' for Active; 'I' for Inactive)
REMARK    1  A    between atoms: C_3  and  C_2 
REMARK       I    between atoms: N_11  and  C_12 
REMARK    2  A    between atoms: C_12  and  C_14 
REMARK    3  A    between atoms: C_14  and  N_15 
REMARK    4  A    between atoms: C_19  and  C_21 
ROOT
HETATM    1  N   UNK N   1     168.575 153.562 154.869  0.00  0.00    -0.259 N 
HETATM    2  C   UNK N   1     167.828 152.461 154.994  0.00  0.00     0.326 A 
HETATM    3  O   UNK N   1     166.964 152.320 155.844  0.00  0.00    -0.247 OA
HETATM    4  N   UNK N   1     168.095 151.538 154.051  0.00  0.00    -0.321 N 
HETATM    5  C   UNK N   1     169.098 152.069 153.131  0.00  0.00     0.140 A 
HETATM    6  C   UNK N   1     170.320 151.165 153.082  0.00  0.00     0.054 C 
HETATM    7  C   UNK N   1     169.378 153.394 153.809  0.00  0.00     0.261 A 
HETATM    8  O   UNK N   1     170.158 154.247 153.409  0.00  0.00    -0.270 OA
HETATM    9  H   UNK N   1     167.681 150.646 153.993  0.00  0.00     0.165 HD
ENDROOT
BRANCH   1  10
HETATM   10  C   UNK N   1     168.387 154.796 155.600  0.00  0.00     0.239 C 
BRANCH  10  11
HETATM   11  C   UNK N   1     167.342 155.803 155.160  0.00  0.00     0.239 C 
HETATM   12  N   UNK N   1     166.213 156.144 155.869  0.00  0.00    -0.339 N 
HETATM   13  C   UNK N   1     165.918 155.496 157.147  0.00  0.00     0.147 C 
HETATM   14  C   UNK N   1     165.224 157.034 155.229  0.00  0.00     0.137 C 
HETATM   15  C   UNK N   1     165.039 156.337 158.076  0.00  0.00     0.148 C 
HETATM   16  N   UNK N   1     163.921 156.878 157.328  0.00  0.00    -0.357 N 
HETATM   17  C   UNK N   1     162.694 157.176 157.782  0.00  0.00     0.091 A 
HETATM   18  C   UNK N   1     163.983 157.218 156.044  0.00  0.00     0.034 A 
HETATM   19  C   UNK N   1     161.952 157.720 156.740  0.00  0.00     0.019 A 
HETATM   20  C   UNK N   1     162.784 157.751 155.626  0.00  0.00     0.028 A 
HETATM   21  O   UNK N   1     167.518 156.292 154.054  0.00  0.00    -0.271 OA
BRANCH  14  22
HETATM   22  C   UNK N   1     165.812 158.402 154.856  0.00  0.00     0.027 C 
HETATM   23  C   UNK N   1     166.247 159.196 156.077  0.00  0.00     0.007 C 
ENDBRANCH  14  22
ENDBRANCH  10  11
ENDBRANCH   1  10
BRANCH   5  24
HETATM   24  C   UNK N   1     168.502 152.332 151.760  0.00  0.00    -0.021 A 
HETATM   25  C   UNK N   1     168.731 151.431 150.705  0.00  0.00     0.013 A 
HETATM   26  C   UNK N   1     168.292 151.730 149.412  0.00  0.00     0.043 A 
HETATM   27  C   UNK N   1     167.620 152.930 149.160  0.00  0.00     0.116 A 
HETATM   28  F   UNK N   1     167.221 153.233 147.902  0.00  0.00    -0.206 F 
HETATM   29  C   UNK N   1     167.371 153.823 150.205  0.00  0.00     0.043 A 
HETATM   30  C   UNK N   1     167.811 153.527 151.497  0.00  0.00     0.013 A 
ENDBRANCH   5  24
TORSDOF 4
ENDMDL
MODEL 3
REMARK VINA RESULT:      -7.0      1.982      3.001
REMARK  4 active torsions:
REMARK  status: ('A' for Active; 'I' for Inactive)
REMARK    1  A    between atoms: C_3  and  C_2 
REMARK       I    between atoms: N_11  and  C_12 
REMARK    2  A    between atoms: C_12  and  C_14 
REMARK    3  A    between atoms: C_14  and  N_15 
REMARK    4  A    between atoms: C_19  and  C_21 
ROOT
HETATM    1  N   UNK N   1     168.464 151.473 154.856  0.00  0.00    -0.259 N 
HETATM    2  C   UNK N   1     167.971 150.262 155.131  0.00  0.00     0.326 A 
HETATM    3  O   UNK N   1     166.908 150.075 155.701  0.00  0.00    -0.247 OA
HETATM    4  N   UNK N   1     168.748 149.264 154.670  0.00  0.00    -0.321 N 
HETATM    5  C   UNK N   1     169.881 149.833 153.944  0.00  0.00     0.140 A 
HETATM    6  C   UNK N   1     171.198 149.370 154.548  0.00  0.00     0.054 C 
HETATM    7  C   UNK N   1     169.612 151.304 154.184  0.00  0.00     0.261 A 
HETATM    8  O   UNK N   1     170.288 152.230 153.756  0.00  0.00    -0.270 OA
HETATM    9  H   UNK N   1     168.578 148.302 154.802  0.00  0.00     0.165 HD
ENDROOT
BRANCH   1  10
HETATM   10  C   UNK N   1     167.771 152.729 155.044  0.00  0.00     0.239 C 
BRANCH  10  11
HETATM   11  C   UNK N   1     168.034 153.579 156.272  0.00  0.00     0.239 C 
HETATM   12  N   UNK N   1     167.670 154.898 156.422  0.00  0.00    -0.339 N 
HETATM   13  C   UNK N   1     166.999 155.609 155.335  0.00  0.00     0.147 C 
HETATM   14  C   UNK N   1     168.131 155.620 157.624  0.00  0.00     0.137 C 
HETATM   15  C   UNK N   1     166.145 156.789 155.804  0.00  0.00     0.148 C 
HETATM   16  N   UNK N   1     166.896 157.583 156.758  0.00  0.00    -0.357 N 
HETATM   17  C   UNK N   1     166.796 158.900 156.992  0.00  0.00     0.091 A 
HETATM   18  C   UNK N   1     167.787 157.076 157.604  0.00  0.00     0.034 A 
HETATM   19  C   UNK N   1     167.663 159.237 158.025  0.00  0.00     0.019 A 
HETATM   20  C   UNK N   1     168.295 158.063 158.420  0.00  0.00     0.028 A 
HETATM   21  O   UNK N   1     168.672 153.034 157.160  0.00  0.00    -0.271 OA
BRANCH  14  22
HETATM   22  C   UNK N   1     167.631 154.982 158.928  0.00  0.00     0.027 C 
HETATM   23  C   UNK N   1     166.115 154.986 159.027  0.00  0.00     0.007 C 
ENDBRANCH  14  22
ENDBRANCH  10  11
ENDBRANCH   1  10
BRANCH   5  24
HETATM   24  C   UNK N   1     169.780 149.549 152.457  0.00  0.00    -0.021 A 
HETATM   25  C   UNK N   1     168.690 148.823 151.949  0.00  0.00     0.013 A 
HETATM   26  C   UNK N   1     168.655 148.450 150.601  0.00  0.00     0.043 A 
HETATM   27  C   UNK N   1     169.707 148.799 149.750  0.00  0.00     0.116 A 
HETATM   28  F   UNK N   1     169.687 148.412 148.452  0.00  0.00    -0.206 F 
HETATM   29  C   UNK N   1     170.786 149.538 150.241  0.00  0.00     0.043 A 
HETATM   30  C   UNK N   1     170.824 149.909 151.587  0.00  0.00     0.013 A 
ENDBRANCH   5  24
TORSDOF 4
ENDMDL
MODEL 4
REMARK VINA RESULT:      -7.0      3.255      8.489
REMARK  4 active torsions:
REMARK  status: ('A' for Active; 'I' for Inactive)
REMARK    1  A    between atoms: C_3  and  C_2 
REMARK       I    between atoms: N_11  and  C_12 
REMARK    2  A    between atoms: C_12  and  C_14 
REMARK    3  A    between atoms: C_14  and  N_15 
REMARK    4  A    between atoms: C_19  and  C_21 
ROOT
HETATM    1  N   UNK N   1     167.975 153.915 154.254  0.00  0.00    -0.259 N 
HETATM    2  C   UNK N   1     166.917 153.581 154.997  0.00  0.00     0.326 A 
HETATM    3  O   UNK N   1     166.825 152.533 155.618  0.00  0.00    -0.247 OA
HETATM    4  N   UNK N   1     165.976 154.544 155.031  0.00  0.00    -0.321 N 
HETATM    5  C   UNK N   1     166.449 155.702 154.275  0.00  0.00     0.140 A 
HETATM    6  C   UNK N   1     165.480 156.049 153.156  0.00  0.00     0.054 C 
HETATM    7  C   UNK N   1     167.760 155.143 153.763  0.00  0.00     0.261 A 
HETATM    8  O   UNK N   1     168.568 155.747 153.071  0.00  0.00    -0.270 OA
HETATM    9  H   UNK N   1     165.108 154.477 155.491  0.00  0.00     0.165 HD
ENDROOT
BRANCH   1  10
HETATM   10  C   UNK N   1     169.221 153.182 154.183  0.00  0.00     0.239 C 
BRANCH  10  11
HETATM   11  C   UNK N   1     169.265 151.793 153.575  0.00  0.00     0.239 C 
HETATM   12  N   UNK N   1     169.663 150.649 154.228  0.00  0.00    -0.339 N 
HETATM   13  C   UNK N   1     170.123 150.709 155.615  0.00  0.00     0.147 C 
HETATM   14  C   UNK N   1     169.786 149.402 153.446  0.00  0.00     0.137 C 
HETATM   15  C   UNK N   1     169.955 149.394 156.378  0.00  0.00     0.148 C 
HETATM   16  N   UNK N   1     170.436 148.294 155.563  0.00  0.00    -0.357 N 
HETATM   17  C   UNK N   1     170.972 147.136 155.976  0.00  0.00     0.091 A 
HETATM   18  C   UNK N   1     170.355 148.266 154.236  0.00  0.00     0.034 A 
HETATM   19  C   UNK N   1     171.244 146.349 154.864  0.00  0.00     0.019 A 
HETATM   20  C   UNK N   1     170.843 147.074 153.748  0.00  0.00     0.028 A 
HETATM   21  O   UNK N   1     168.971 151.729 152.390  0.00  0.00    -0.271 OA
BRANCH  14  22
HETATM   22  C   UNK N   1     168.462 148.976 152.796  0.00  0.00     0.027 C 
HETATM   23  C   UNK N   1     168.657 148.450 151.384  0.00  0.00     0.007 C 
ENDBRANCH  14  22
ENDBRANCH  10  11
ENDBRANCH   1  10
BRANCH   5  24
HETATM   24  C   UNK N   1     166.737 156.876 155.193  0.00  0.00    -0.021 A 
HETATM   25  C   UNK N   1     167.494 156.691 156.361  0.00  0.00     0.013 A 
HETATM   26  C   UNK N   1     167.657 157.739 157.272  0.00  0.00     0.043 A 
HETATM   27  C   UNK N   1     167.064 158.981 157.025  0.00  0.00     0.116 A 
HETATM   28  F   UNK N   1     167.198 159.986 157.922  0.00  0.00    -0.206 F 
HETATM   29  C   UNK N   1     166.326 159.181 155.857  0.00  0.00     0.043 A 
HETATM   30  C   UNK N   1     166.161 158.135 154.947  0.00  0.00     0.013 A 
ENDBRANCH   5  24
TORSDOF 4
ENDMDL
MODEL 5
REMARK VINA RESULT:      -6.9      3.224      8.387
REMARK  4 active torsions:
REMARK  status: ('A' for Active; 'I' for Inactive)
REMARK    1  A    between atoms: C_3  and  C_2 
REMARK       I    between atoms: N_11  and  C_12 
REMARK    2  A    between atoms: C_12  and  C_14 
REMARK    3  A    between atoms: C_14  and  N_15 
REMARK    4  A    between atoms: C_19  and  C_21 
ROOT
HETATM    1  N   UNK N   1     167.462 155.177 154.827  0.00  0.00    -0.259 N 
HETATM    2  C   UNK N   1     167.007 155.198 153.572  0.00  0.00     0.326 A 
HETATM    3  O   UNK N   1     167.364 154.415 152.706  0.00  0.00    -0.247 OA
HETATM    4  N   UNK N   1     166.074 156.147 153.369  0.00  0.00    -0.321 N 
HETATM    5  C   UNK N   1     165.803 156.830 154.633  0.00  0.00     0.140 A 
HETATM    6  C   UNK N   1     166.056 158.324 154.505  0.00  0.00     0.054 C 
HETATM    7  C   UNK N   1     166.823 156.136 155.511  0.00  0.00     0.261 A 
HETATM    8  O   UNK N   1     166.992 156.344 156.705  0.00  0.00    -0.270 OA
HETATM    9  H   UNK N   1     165.643 156.349 152.506  0.00  0.00     0.165 HD
ENDROOT
BRANCH   1  10
HETATM   10  C   UNK N   1     168.314 154.156 155.398  0.00  0.00     0.239 C 
BRANCH  10  11
HETATM   11  C   UNK N   1     167.995 152.686 155.205  0.00  0.00     0.239 C 
HETATM   12  N   UNK N   1     168.738 151.800 154.460  0.00  0.00    -0.339 N 
HETATM   13  C   UNK N   1     169.930 152.252 153.742  0.00  0.00     0.147 C 
HETATM   14  C   UNK N   1     168.207 150.438 154.255  0.00  0.00     0.137 C 
HETATM   15  C   UNK N   1     170.951 151.143 153.480  0.00  0.00     0.148 C 
HETATM   16  N   UNK N   1     170.271 149.967 152.971  0.00  0.00    -0.357 N 
HETATM   17  C   UNK N   1     170.754 149.032 152.140  0.00  0.00     0.091 A 
HETATM   18  C   UNK N   1     169.036 149.617 153.319  0.00  0.00     0.034 A 
HETATM   19  C   UNK N   1     169.783 148.055 151.954  0.00  0.00     0.019 A 
HETATM   20  C   UNK N   1     168.683 148.430 152.716  0.00  0.00     0.028 A 
HETATM   21  O   UNK N   1     166.955 152.303 155.721  0.00  0.00    -0.271 OA
BRANCH  14  22
HETATM   22  C   UNK N   1     168.000 149.678 155.573  0.00  0.00     0.027 C 
HETATM   23  C   UNK N   1     169.307 149.430 156.308  0.00  0.00     0.007 C 
ENDBRANCH  14  22
ENDBRANCH  10  11
ENDBRANCH   1  10
BRANCH   5  24
HETATM   24  C   UNK N   1     164.410 156.508 155.144  0.00  0.00    -0.021 A 
HETATM   25  C   UNK N   1     163.600 157.525 155.676  0.00  0.00     0.013 A 
HETATM   26  C   UNK N   1     162.369 157.215 156.262  0.00  0.00     0.043 A 
HETATM   27  C   UNK N   1     161.937 155.887 156.323  0.00  0.00     0.116 A 
HETATM   28  F   UNK N   1     160.758 155.585 156.918  0.00  0.00    -0.206 F 
HETATM   29  C   UNK N   1     162.725 154.871 155.780  0.00  0.00     0.043 A 
HETATM   30  C   UNK N   1     163.956 155.179 155.196  0.00  0.00     0.013 A 
ENDBRANCH   5  24
TORSDOF 4
ENDMDL
MODEL 6
REMARK VINA RESULT:      -6.7      5.822      8.164
REMARK  4 active torsions:
REMARK  status: ('A' for Active; 'I' for Inactive)
REMARK    1  A    between atoms: C_3  and  C_2 
REMARK       I    between atoms: N_11  and  C_12 
REMARK    2  A    between atoms: C_12  and  C_14 
REMARK    3  A    between atoms: C_14  and  N_15 
REMARK    4  A    between atoms: C_19  and  C_21 
ROOT
HETATM    1  N   UNK N   1     165.401 156.714 154.190  0.00  0.00    -0.259 N 
HETATM    2  C   UNK N   1     166.093 157.820 153.904  0.00  0.00     0.326 A 
HETATM    3  O   UNK N   1     165.581 158.873 153.559  0.00  0.00    -0.247 OA
HETATM    4  N   UNK N   1     167.419 157.667 154.083  0.00  0.00    -0.321 N 
HETATM    5  C   UNK N   1     167.681 156.327 154.604  0.00  0.00     0.140 A 
HETATM    6  C   UNK N   1     168.628 155.567 153.688  0.00  0.00     0.054 C 
HETATM    7  C   UNK N   1     166.272 155.773 154.579  0.00  0.00     0.261 A 
HETATM    8  O   UNK N   1     165.941 154.654 154.945  0.00  0.00    -0.270 OA
HETATM    9  H   UNK N   1     168.103 158.350 153.893  0.00  0.00     0.165 HD
ENDROOT
BRANCH   1  10
HETATM   10  C   UNK N   1     163.959 156.623 154.284  0.00  0.00     0.239 C 
BRANCH  10  11
HETATM   11  C   UNK N   1     163.220 157.254 155.448  0.00  0.00     0.239 C 
HETATM   12  N   UNK N   1     162.922 156.629 156.637  0.00  0.00    -0.339 N 
HETATM   13  C   UNK N   1     163.292 155.230 156.850  0.00  0.00     0.147 C 
HETATM   14  C   UNK N   1     162.069 157.340 157.609  0.00  0.00     0.137 C 
HETATM   15  C   UNK N   1     163.459 154.854 158.324  0.00  0.00     0.148 C 
HETATM   16  N   UNK N   1     162.341 155.373 159.088  0.00  0.00    -0.357 N 
HETATM   17  C   UNK N   1     161.803 154.866 160.207  0.00  0.00     0.091 A 
HETATM   18  C   UNK N   1     161.706 156.504 158.796  0.00  0.00     0.034 A 
HETATM   19  C   UNK N   1     160.784 155.710 160.634  0.00  0.00     0.019 A 
HETATM   20  C   UNK N   1     160.727 156.764 159.730  0.00  0.00     0.028 A 
HETATM   21  O   UNK N   1     162.822 158.394 155.261  0.00  0.00    -0.271 OA
BRANCH  14  22
HETATM   22  C   UNK N   1     162.680 158.670 158.073  0.00  0.00     0.027 C 
HETATM   23  C   UNK N   1     164.000 158.476 158.799  0.00  0.00     0.007 C 
ENDBRANCH  14  22
ENDBRANCH  10  11
ENDBRANCH   1  10
BRANCH   5  24
HETATM   24  C   UNK N   1     168.165 156.381 156.042  0.00  0.00    -0.021 A 
HETATM   25  C   UNK N   1     168.968 155.349 156.556  0.00  0.00     0.013 A 
HETATM   26  C   UNK N   1     169.312 155.329 157.911  0.00  0.00     0.043 A 
HETATM   27  C   UNK N   1     168.856 156.338 158.764  0.00  0.00     0.116 A 
HETATM   28  F   UNK N   1     169.165 156.302 160.083  0.00  0.00    -0.206 F 
HETATM   29  C   UNK N   1     168.074 157.378 158.259  0.00  0.00     0.043 A 
HETATM   30  C   UNK N   1     167.727 157.399 156.907  0.00  0.00     0.013 A 
ENDBRANCH   5  24
TORSDOF 4
ENDMDL
MODEL 7
REMARK VINA RESULT:      -6.6      5.757     10.224
REMARK  4 active torsions:
REMARK  status: ('A' for Active; 'I' for Inactive)
REMARK    1  A    between atoms: C_3  and  C_2 
REMARK       I    between atoms: N_11  and  C_12 
REMARK    2  A    between atoms: C_12  and  C_14 
REMARK    3  A    between atoms: C_14  and  N_15 
REMARK    4  A    between atoms: C_19  and  C_21 
ROOT
HETATM    1  N   UNK N   1     162.351 156.711 156.784  0.00  0.00    -0.259 N 
HETATM    2  C   UNK N   1     161.728 155.605 156.369  0.00  0.00     0.326 A 
HETATM    3  O   UNK N   1     162.202 154.817 155.566  0.00  0.00    -0.247 OA
HETATM    4  N   UNK N   1     160.536 155.421 156.968  0.00  0.00    -0.321 N 
HETATM    5  C   UNK N   1     160.323 156.482 157.949  0.00  0.00     0.140 A 
HETATM    6  C   UNK N   1     159.043 157.246 157.651  0.00  0.00     0.054 C 
HETATM    7  C   UNK N   1     161.569 157.305 157.695  0.00  0.00     0.261 A 
HETATM    8  O   UNK N   1     161.881 158.326 158.293  0.00  0.00    -0.270 OA
HETATM    9  H   UNK N   1     159.907 154.688 156.773  0.00  0.00     0.165 HD
ENDROOT
BRANCH   1  10
HETATM   10  C   UNK N   1     163.718 157.073 156.477  0.00  0.00     0.239 C 
BRANCH  10  11
HETATM   11  C   UNK N   1     164.849 156.091 156.714  0.00  0.00     0.239 C 
HETATM   12  N   UNK N   1     165.644 155.538 155.736  0.00  0.00    -0.339 N 
HETATM   13  C   UNK N   1     165.414 155.856 154.327  0.00  0.00     0.147 C 
HETATM   14  C   UNK N   1     166.605 154.487 156.125  0.00  0.00     0.137 C 
HETATM   15  C   UNK N   1     166.655 155.693 153.447  0.00  0.00     0.148 C 
HETATM   16  N   UNK N   1     167.302 154.431 153.750  0.00  0.00    -0.357 N 
HETATM   17  C   UNK N   1     168.026 153.658 152.926  0.00  0.00     0.091 A 
HETATM   18  C   UNK N   1     167.309 153.872 154.957  0.00  0.00     0.034 A 
HETATM   19  C   UNK N   1     168.504 152.567 153.642  0.00  0.00     0.019 A 
HETATM   20  C   UNK N   1     168.047 152.709 154.947  0.00  0.00     0.028 A 
HETATM   21  O   UNK N   1     165.005 155.741 157.875  0.00  0.00    -0.271 OA
BRANCH  14  22
HETATM   22  C   UNK N   1     167.632 154.975 157.157  0.00  0.00     0.027 C 
HETATM   23  C   UNK N   1     168.544 156.054 156.598  0.00  0.00     0.007 C 
ENDBRANCH  14  22
ENDBRANCH  10  11
ENDBRANCH   1  10
BRANCH   5  24
HETATM   24  C   UNK N   1     160.371 155.939 159.366  0.00  0.00    -0.021 A 
HETATM   25  C   UNK N   1     159.332 156.224 160.267  0.00  0.00     0.013 A 
HETATM   26  C   UNK N   1     159.430 155.833 161.606  0.00  0.00     0.043 A 
HETATM   27  C   UNK N   1     160.566 155.155 162.057  0.00  0.00     0.116 A 
HETATM   28  F   UNK N   1     160.674 154.803 163.360  0.00  0.00    -0.206 F 
HETATM   29  C   UNK N   1     161.596 154.849 161.164  0.00  0.00     0.043 A 
HETATM   30  C   UNK N   1     161.501 155.241 159.827  0.00  0.00     0.013 A 
ENDBRANCH   5  24
TORSDOF 4
ENDMDL
MODEL 8
REMARK VINA RESULT:      -6.6      5.267      9.847
REMARK  4 active torsions:
REMARK  status: ('A' for Active; 'I' for Inactive)
REMARK    1  A    between atoms: C_3  and  C_2 
REMARK       I    between atoms: N_11  and  C_12 
REMARK    2  A    between atoms: C_12  and  C_14 
REMARK    3  A    between atoms: C_14  and  N_15 
REMARK    4  A    between atoms: C_19  and  C_21 
ROOT
HETATM    1  N   UNK N   1     165.519 159.555 157.408  0.00  0.00    -0.259 N 
HETATM    2  C   UNK N   1     164.702 160.611 157.409  0.00  0.00     0.326 A 
HETATM    3  O   UNK N   1     164.839 161.577 156.674  0.00  0.00    -0.247 OA
HETATM    4  N   UNK N   1     163.678 160.480 158.273  0.00  0.00    -0.321 N 
HETATM    5  C   UNK N   1     163.752 159.166 158.909  0.00  0.00     0.140 A 
HETATM    6  C   UNK N   1     163.833 159.301 160.421  0.00  0.00     0.054 C 
HETATM    7  C   UNK N   1     165.045 158.669 158.296  0.00  0.00     0.261 A 
HETATM    8  O   UNK N   1     165.554 157.576 158.499  0.00  0.00    -0.270 OA
HETATM    9  H   UNK N   1     162.989 161.162 158.449  0.00  0.00     0.165 HD
ENDROOT
BRANCH   1  10
HETATM   10  C   UNK N   1     166.585 159.313 156.460  0.00  0.00     0.239 C 
BRANCH  10  11
HETATM   11  C   UNK N   1     166.312 158.577 155.162  0.00  0.00     0.239 C 
HETATM   12  N   UNK N   1     166.741 157.305 154.861  0.00  0.00    -0.339 N 
HETATM   13  C   UNK N   1     167.560 156.555 155.813  0.00  0.00     0.147 C 
HETATM   14  C   UNK N   1     166.512 156.791 153.496  0.00  0.00     0.137 C 
HETATM   15  C   UNK N   1     167.460 155.037 155.652  0.00  0.00     0.148 C 
HETATM   16  N   UNK N   1     167.580 154.689 154.249  0.00  0.00    -0.357 N 
HETATM   17  C   UNK N   1     168.076 153.560 153.721  0.00  0.00     0.091 A 
HETATM   18  C   UNK N   1     167.144 155.457 153.255  0.00  0.00     0.034 A 
HETATM   19  C   UNK N   1     167.952 153.622 152.338  0.00  0.00     0.019 A 
HETATM   20  C   UNK N   1     167.348 154.839 152.041  0.00  0.00     0.028 A 
HETATM   21  O   UNK N   1     165.705 159.215 154.315  0.00  0.00    -0.271 OA
BRANCH  14  22
HETATM   22  C   UNK N   1     165.024 156.741 153.124  0.00  0.00     0.027 C 
HETATM   23  C   UNK N   1     164.213 155.908 154.102  0.00  0.00     0.007 C 
ENDBRANCH  14  22
ENDBRANCH  10  11
ENDBRANCH   1  10
BRANCH   5  24
HETATM   24  C   UNK N   1     162.614 158.271 158.455  0.00  0.00    -0.021 A 
HETATM   25  C   UNK N   1     161.834 157.586 159.402  0.00  0.00     0.013 A 
HETATM   26  C   UNK N   1     160.867 156.665 158.988  0.00  0.00     0.043 A 
HETATM   27  C   UNK N   1     160.672 156.418 157.625  0.00  0.00     0.116 A 
HETATM   28  F   UNK N   1     159.756 155.504 157.226  0.00  0.00    -0.206 F 
HETATM   29  C   UNK N   1     161.429 157.108 156.676  0.00  0.00     0.043 A 
HETATM   30  C   UNK N   1     162.396 158.027 157.088  0.00  0.00     0.013 A 
ENDBRANCH   5  24
TORSDOF 4
ENDMDL
MODEL 9
REMARK VINA RESULT:      -6.6      5.540     10.733
REMARK  4 active torsions:
REMARK  status: ('A' for Active; 'I' for Inactive)
REMARK    1  A    between atoms: C_3  and  C_2 
REMARK       I    between atoms: N_11  and  C_12 
REMARK    2  A    between atoms: C_12  and  C_14 
REMARK    3  A    between atoms: C_14  and  N_15 
REMARK    4  A    between atoms: C_19  and  C_21 
ROOT
HETATM    1  N   UNK N   1     165.478 160.116 157.052  0.00  0.00    -0.259 N 
HETATM    2  C   UNK N   1     165.290 161.409 156.778  0.00  0.00     0.326 A 
HETATM    3  O   UNK N   1     166.054 162.078 156.098  0.00  0.00    -0.247 OA
HETATM    4  N   UNK N   1     164.143 161.892 157.292  0.00  0.00    -0.321 N 
HETATM    5  C   UNK N   1     163.419 160.807 157.950  0.00  0.00     0.140 A 
HETATM    6  C   UNK N   1     163.160 161.138 159.411  0.00  0.00     0.054 C 
HETATM    7  C   UNK N   1     164.430 159.693 157.772  0.00  0.00     0.261 A 
HETATM    8  O   UNK N   1     164.288 158.537 158.148  0.00  0.00    -0.270 OA
HETATM    9  H   UNK N   1     163.841 162.828 157.233  0.00  0.00     0.165 HD
ENDROOT
BRANCH   1  10
HETATM   10  C   UNK N   1     166.506 159.273 156.480  0.00  0.00     0.239 C 
BRANCH  10  11
HETATM   11  C   UNK N   1     166.269 158.548 155.169  0.00  0.00     0.239 C 
HETATM   12  N   UNK N   1     166.701 157.276 154.872  0.00  0.00    -0.339 N 
HETATM   13  C   UNK N   1     167.487 156.514 155.843  0.00  0.00     0.147 C 
HETATM   14  C   UNK N   1     166.512 156.774 153.497  0.00  0.00     0.137 C 
HETATM   15  C   UNK N   1     167.384 154.998 155.667  0.00  0.00     0.148 C 
HETATM   16  N   UNK N   1     167.545 154.660 154.265  0.00  0.00    -0.357 N 
HETATM   17  C   UNK N   1     168.051 153.533 153.744  0.00  0.00     0.091 A 
HETATM   18  C   UNK N   1     167.144 155.438 153.265  0.00  0.00     0.034 A 
HETATM   19  C   UNK N   1     167.970 153.606 152.358  0.00  0.00     0.019 A 
HETATM   20  C   UNK N   1     167.382 154.828 152.053  0.00  0.00     0.028 A 
HETATM   21  O   UNK N   1     165.692 159.196 154.308  0.00  0.00    -0.271 OA
BRANCH  14  22
HETATM   22  C   UNK N   1     165.035 156.734 153.078  0.00  0.00     0.027 C 
HETATM   23  C   UNK N   1     164.193 155.886 154.016  0.00  0.00     0.007 C 
ENDBRANCH  14  22
ENDBRANCH  10  11
ENDBRANCH   1  10
BRANCH   5  24
HETATM   24  C   UNK N   1     162.153 160.451 157.191  0.00  0.00    -0.021 A 
HETATM   25  C   UNK N   1     161.589 161.368 156.289  0.00  0.00     0.013 A 
HETATM   26  C   UNK N   1     160.358 161.098 155.683  0.00  0.00     0.043 A 
HETATM   27  C   UNK N   1     159.680 159.910 155.973  0.00  0.00     0.116 A 
HETATM   28  F   UNK N   1     158.474 159.662 155.408  0.00  0.00    -0.206 F 
HETATM   29  C   UNK N   1     160.242 158.983 156.853  0.00  0.00     0.043 A 
HETATM   30  C   UNK N   1     161.470 159.252 157.461  0.00  0.00     0.013 A 
ENDBRANCH   5  24
TORSDOF 4
ENDMDL
