MODEL 1
REMARK VINA RESULT:      -6.9      0.000      0.000
REMARK  4 active torsions:
REMARK  status: ('A' for Active; 'I' for Inactive)
REMARK    1  A    between atoms: C_3  and  C_2 
REMARK       I    between atoms: N_11  and  C_12 
REMARK    2  A    between atoms: C_12  and  C_14 
REMARK    3  A    between atoms: C_14  and  N_15 
REMARK    4  A    between atoms: C_19  and  C_21 
ROOT
HETATM    1  N   UNK N   1     167.689 153.045 155.030  0.00  0.00    -0.259 N 
HETATM    2  C   UNK N   1     168.757 153.614 154.467  0.00  0.00     0.326 A 
HETATM    3  O   UNK N   1     168.893 154.819 154.324  0.00  0.00    -0.247 OA
HETATM    4  N   UNK N   1     169.702 152.716 154.121  0.00  0.00    -0.321 N 
HETATM    5  C   UNK N   1     169.258 151.381 154.506  0.00  0.00     0.140 A 
HETATM    6  C   UNK N   1     170.128 150.881 155.657  0.00  0.00     0.054 C 
HETATM    7  C   UNK N   1     167.890 151.720 155.058  0.00  0.00     0.261 A 
HETATM    8  O   UNK N   1     167.097 150.924 155.537  0.00  0.00    -0.270 OA
HETATM    9  H   UNK N   1     170.556 152.928 153.677  0.00  0.00     0.165 HD
ENDROOT
BRANCH   1  10
HETATM   10  C   UNK N   1     166.581 153.752 155.642  0.00  0.00     0.239 C 
BRANCH  10  11
HETATM   11  C   UNK N   1     167.093 154.554 156.827  0.00  0.00     0.239 C 
HETATM   12  N   UNK N   1     166.864 155.900 156.931  0.00  0.00    -0.339 N 
HETATM   13  C   UNK N   1     166.015 156.551 155.938  0.00  0.00     0.147 C 
HETATM   14  C   UNK N   1     167.406 156.663 158.076  0.00  0.00     0.137 C 
HETATM   15  C   UNK N   1     166.566 157.909 155.528  0.00  0.00     0.148 C 
HETATM   16  N   UNK N   1     166.828 158.678 156.730  0.00  0.00    -0.357 N 
HETATM   17  C   UNK N   1     166.787 160.011 156.871  0.00  0.00     0.091 A 
HETATM   18  C   UNK N   1     167.207 158.144 157.894  0.00  0.00     0.034 A 
HETATM   19  C   UNK N   1     167.150 160.336 158.170  0.00  0.00     0.019 A 
HETATM   20  C   UNK N   1     167.425 159.140 158.825  0.00  0.00     0.028 A 
HETATM   21  O   UNK N   1     167.746 153.979 157.691  0.00  0.00    -0.271 OA
BRANCH  14  22
HETATM   22  C   UNK N   1     168.916 156.421 158.223  0.00  0.00     0.027 C 
HETATM   23  C   UNK N   1     169.353 156.416 159.678  0.00  0.00     0.007 C 
ENDBRANCH  14  22
ENDBRANCH  10  11
ENDBRANCH   1  10
BRANCH   5  24
HETATM   24  C   UNK N   1     169.250 150.424 153.327  0.00  0.00    -0.021 A 
HETATM   25  C   UNK N   1     169.256 150.921 152.011  0.00  0.00     0.013 A 
HETATM   26  C   UNK N   1     169.232 150.055 150.920  0.00  0.00     0.043 A 
HETATM   27  C   UNK N   1     169.197 148.675 151.127  0.00  0.00     0.116 A 
HETATM   28  F   UNK N   1     169.172 147.836 150.063  0.00  0.00    -0.206 F 
HETATM   29  C   UNK N   1     169.189 148.164 152.429  0.00  0.00     0.043 A 
HETATM   30  C   UNK N   1     169.214 149.034 153.528  0.00  0.00     0.013 A 
ENDBRANCH   5  24
TORSDOF 4
ENDMDL
MODEL 2
REMARK VINA RESULT:      -6.8      3.315      4.625
REMARK  4 active torsions:
REMARK  status: ('A' for Active; 'I' for Inactive)
REMARK    1  A    between atoms: C_3  and  C_2 
REMARK       I    between atoms: N_11  and  C_12 
REMARK    2  A    between atoms: C_12  and  C_14 
REMARK    3  A    between atoms: C_14  and  N_15 
REMARK    4  A    between atoms: C_19  and  C_21 
ROOT
HETATM    1  N   UNK N   1     168.109 155.260 154.869  0.00  0.00    -0.259 N 
HETATM    2  C   UNK N   1     169.211 155.624 154.212  0.00  0.00     0.326 A 
HETATM    3  O   UNK N   1     169.914 156.570 154.529  0.00  0.00    -0.247 OA
HETATM    4  N   UNK N   1     169.501 154.798 153.185  0.00  0.00    -0.321 N 
HETATM    5  C   UNK N   1     168.510 153.729 153.137  0.00  0.00     0.140 A 
HETATM    6  C   UNK N   1     169.179 152.414 153.533  0.00  0.00     0.054 C 
HETATM    7  C   UNK N   1     167.612 154.166 154.274  0.00  0.00     0.261 A 
HETATM    8  O   UNK N   1     166.614 153.578 154.661  0.00  0.00    -0.270 OA
HETATM    9  H   UNK N   1     170.261 154.902 152.567  0.00  0.00     0.165 HD
ENDROOT
BRANCH   1  10
HETATM   10  C   UNK N   1     167.627 155.852 156.101  0.00  0.00     0.239 C 
BRANCH  10  11
HETATM   11  C   UNK N   1     166.480 156.798 155.785  0.00  0.00     0.239 C 
HETATM   12  N   UNK N   1     165.259 156.668 156.392  0.00  0.00    -0.339 N 
HETATM   13  C   UNK N   1     165.096 155.668 157.444  0.00  0.00     0.147 C 
HETATM   14  C   UNK N   1     164.149 157.578 156.038  0.00  0.00     0.137 C 
HETATM   15  C   UNK N   1     163.761 154.947 157.335  0.00  0.00     0.148 C 
HETATM   16  N   UNK N   1     162.709 155.943 157.248  0.00  0.00    -0.357 N 
HETATM   17  C   UNK N   1     161.441 155.830 157.670  0.00  0.00     0.091 A 
HETATM   18  C   UNK N   1     162.854 157.139 156.670  0.00  0.00     0.034 A 
HETATM   19  C   UNK N   1     160.757 156.995 157.350  0.00  0.00     0.019 A 
HETATM   20  C   UNK N   1     161.661 157.832 156.705  0.00  0.00     0.028 A 
HETATM   21  O   UNK N   1     166.653 157.678 154.950  0.00  0.00    -0.271 OA
BRANCH  14  22
HETATM   22  C   UNK N   1     163.929 157.600 154.518  0.00  0.00     0.027 C 
HETATM   23  C   UNK N   1     163.852 156.200 153.934  0.00  0.00     0.007 C 
ENDBRANCH  14  22
ENDBRANCH  10  11
ENDBRANCH   1  10
BRANCH   5  24
HETATM   24  C   UNK N   1     167.829 153.647 151.783  0.00  0.00    -0.021 A 
HETATM   25  C   UNK N   1     168.075 152.555 150.930  0.00  0.00     0.013 A 
HETATM   26  C   UNK N   1     167.470 152.476 149.677  0.00  0.00     0.043 A 
HETATM   27  C   UNK N   1     166.610 153.489 149.254  0.00  0.00     0.116 A 
HETATM   28  F   UNK N   1     166.025 153.409 148.035  0.00  0.00    -0.206 F 
HETATM   29  C   UNK N   1     166.355 154.583 150.089  0.00  0.00     0.043 A 
HETATM   30  C   UNK N   1     166.963 154.665 151.349  0.00  0.00     0.013 A 
ENDBRANCH   5  24
TORSDOF 4
ENDMDL
MODEL 3
REMARK VINA RESULT:      -6.7      3.520      8.141
REMARK  4 active torsions:
REMARK  status: ('A' for Active; 'I' for Inactive)
REMARK    1  A    between atoms: C_3  and  C_2 
REMARK       I    between atoms: N_11  and  C_12 
REMARK    2  A    between atoms: C_12  and  C_14 
REMARK    3  A    between atoms: C_14  and  N_15 
REMARK    4  A    between atoms: C_19  and  C_21 
ROOT
HETATM    1  N   UNK N   1     168.352 153.272 154.233  0.00  0.00    -0.259 N 
HETATM    2  C   UNK N   1     168.842 154.496 154.021  0.00  0.00     0.326 A 
HETATM    3  O   UNK N   1     169.661 154.763 153.157  0.00  0.00    -0.247 OA
HETATM    4  N   UNK N   1     168.292 155.423 154.831  0.00  0.00    -0.321 N 
HETATM    5  C   UNK N   1     167.293 154.785 155.681  0.00  0.00     0.140 A 
HETATM    6  C   UNK N   1     165.905 155.266 155.264  0.00  0.00     0.054 C 
HETATM    7  C   UNK N   1     167.454 153.351 155.225  0.00  0.00     0.261 A 
HETATM    8  O   UNK N   1     166.813 152.395 155.636  0.00  0.00    -0.270 OA
HETATM    9  H   UNK N   1     168.527 156.380 154.847  0.00  0.00     0.165 HD
ENDROOT
BRANCH   1  10
HETATM   10  C   UNK N   1     168.630 152.102 153.426  0.00  0.00     0.239 C 
BRANCH  10  11
HETATM   11  C   UNK N   1     169.650 151.231 154.142  0.00  0.00     0.239 C 
HETATM   12  N   UNK N   1     169.301 150.025 154.689  0.00  0.00    -0.339 N 
HETATM   13  C   UNK N   1     167.947 149.520 154.481  0.00  0.00     0.147 C 
HETATM   14  C   UNK N   1     170.304 149.217 155.414  0.00  0.00     0.137 C 
HETATM   15  C   UNK N   1     167.383 148.881 155.741  0.00  0.00     0.148 C 
HETATM   16  N   UNK N   1     168.346 147.911 156.231  0.00  0.00    -0.357 N 
HETATM   17  C   UNK N   1     168.094 146.789 156.922  0.00  0.00     0.091 A 
HETATM   18  C   UNK N   1     169.669 148.035 156.098  0.00  0.00     0.034 A 
HETATM   19  C   UNK N   1     169.300 146.177 157.236  0.00  0.00     0.019 A 
HETATM   20  C   UNK N   1     170.309 146.978 156.713  0.00  0.00     0.028 A 
HETATM   21  O   UNK N   1     170.802 151.638 154.248  0.00  0.00    -0.271 OA
BRANCH  14  22
HETATM   22  C   UNK N   1     170.995 150.055 156.500  0.00  0.00     0.027 C 
HETATM   23  C   UNK N   1     170.012 150.554 157.545  0.00  0.00     0.007 C 
ENDBRANCH  14  22
ENDBRANCH  10  11
ENDBRANCH   1  10
BRANCH   5  24
HETATM   24  C   UNK N   1     167.569 155.019 157.155  0.00  0.00    -0.021 A 
HETATM   25  C   UNK N   1     166.595 154.699 158.119  0.00  0.00     0.013 A 
HETATM   26  C   UNK N   1     166.827 154.924 159.474  0.00  0.00     0.043 A 
HETATM   27  C   UNK N   1     168.039 155.477 159.889  0.00  0.00     0.116 A 
HETATM   28  F   UNK N   1     168.262 155.696 161.207  0.00  0.00    -0.206 F 
HETATM   29  C   UNK N   1     169.019 155.803 158.944  0.00  0.00     0.043 A 
HETATM   30  C   UNK N   1     168.786 155.577 157.581  0.00  0.00     0.013 A 
ENDBRANCH   5  24
TORSDOF 4
ENDMDL
MODEL 4
REMARK VINA RESULT:      -6.7      2.675      3.769
REMARK  4 active torsions:
REMARK  status: ('A' for Active; 'I' for Inactive)
REMARK    1  A    between atoms: C_3  and  C_2 
REMARK       I    between atoms: N_11  and  C_12 
REMARK    2  A    between atoms: C_12  and  C_14 
REMARK    3  A    between atoms: C_14  and  N_15 
REMARK    4  A    between atoms: C_19  and  C_21 
ROOT
HETATM    1  N   UNK N   1     167.972 154.906 155.186  0.00  0.00    -0.259 N 
HETATM    2  C   UNK N   1     168.965 155.555 154.576  0.00  0.00     0.326 A 
HETATM    3  O   UNK N   1     169.466 156.587 154.995  0.00  0.00    -0.247 OA
HETATM    4  N   UNK N   1     169.400 154.919 153.469  0.00  0.00    -0.321 N 
HETATM    5  C   UNK N   1     168.648 153.680 153.302  0.00  0.00     0.140 A 
HETATM    6  C   UNK N   1     169.577 152.496 153.561  0.00  0.00     0.054 C 
HETATM    7  C   UNK N   1     167.699 153.803 154.475  0.00  0.00     0.261 A 
HETATM    8  O   UNK N   1     166.848 152.985 154.793  0.00  0.00    -0.270 OA
HETATM    9  H   UNK N   1     170.112 155.240 152.869  0.00  0.00     0.165 HD
ENDROOT
BRANCH   1  10
HETATM   10  C   UNK N   1     167.400 155.255 156.471  0.00  0.00     0.239 C 
BRANCH  10  11
HETATM   11  C   UNK N   1     166.272 156.251 156.262  0.00  0.00     0.239 C 
HETATM   12  N   UNK N   1     166.317 157.507 156.808  0.00  0.00    -0.339 N 
HETATM   13  C   UNK N   1     167.526 157.928 157.511  0.00  0.00     0.147 C 
HETATM   14  C   UNK N   1     165.188 158.443 156.621  0.00  0.00     0.137 C 
HETATM   15  C   UNK N   1     167.200 158.712 158.774  0.00  0.00     0.148 C 
HETATM   16  N   UNK N   1     166.273 159.773 158.427  0.00  0.00    -0.357 N 
HETATM   17  C   UNK N   1     166.142 160.968 159.022  0.00  0.00     0.091 A 
HETATM   18  C   UNK N   1     165.355 159.682 157.461  0.00  0.00     0.034 A 
HETATM   19  C   UNK N   1     165.107 161.662 158.410  0.00  0.00     0.019 A 
HETATM   20  C   UNK N   1     164.599 160.836 157.414  0.00  0.00     0.028 A 
HETATM   21  O   UNK N   1     165.293 155.906 155.610  0.00  0.00    -0.271 OA
BRANCH  14  22
HETATM   22  C   UNK N   1     163.863 157.786 157.038  0.00  0.00     0.027 C 
HETATM   23  C   UNK N   1     162.754 158.056 156.036  0.00  0.00     0.007 C 
ENDBRANCH  14  22
ENDBRANCH  10  11
ENDBRANCH   1  10
BRANCH   5  24
HETATM   24  C   UNK N   1     167.975 153.603 151.944  0.00  0.00    -0.021 A 
HETATM   25  C   UNK N   1     168.203 152.500 151.101  0.00  0.00     0.013 A 
HETATM   26  C   UNK N   1     167.606 152.425 149.844  0.00  0.00     0.043 A 
HETATM   27  C   UNK N   1     166.770 153.453 149.408  0.00  0.00     0.116 A 
HETATM   28  F   UNK N   1     166.192 153.377 148.185  0.00  0.00    -0.206 F 
HETATM   29  C   UNK N   1     166.533 154.559 150.233  0.00  0.00     0.043 A 
HETATM   30  C   UNK N   1     167.133 154.636 151.497  0.00  0.00     0.013 A 
ENDBRANCH   5  24
TORSDOF 4
ENDMDL
MODEL 5
REMARK VINA RESULT:      -6.7      3.344      8.630
REMARK  4 active torsions:
REMARK  status: ('A' for Active; 'I' for Inactive)
REMARK    1  A    between atoms: C_3  and  C_2 
REMARK       I    between atoms: N_11  and  C_12 
REMARK    2  A    between atoms: C_12  and  C_14 
REMARK    3  A    between atoms: C_14  and  N_15 
REMARK    4  A    between atoms: C_19  and  C_21 
ROOT
HETATM    1  N   UNK N   1     167.703 154.828 154.065  0.00  0.00    -0.259 N 
HETATM    2  C   UNK N   1     168.821 155.547 153.944  0.00  0.00     0.326 A 
HETATM    3  O   UNK N   1     169.852 155.126 153.444  0.00  0.00    -0.247 OA
HETATM    4  N   UNK N   1     168.674 156.813 154.384  0.00  0.00    -0.321 N 
HETATM    5  C   UNK N   1     167.301 157.007 154.837  0.00  0.00     0.140 A 
HETATM    6  C   UNK N   1     166.588 157.949 153.869  0.00  0.00     0.054 C 
HETATM    7  C   UNK N   1     166.765 155.609 154.619  0.00  0.00     0.261 A 
HETATM    8  O   UNK N   1     165.620 155.242 154.837  0.00  0.00    -0.270 OA
HETATM    9  H   UNK N   1     169.382 157.498 154.398  0.00  0.00     0.165 HD
ENDROOT
BRANCH   1  10
HETATM   10  C   UNK N   1     167.500 153.490 153.545  0.00  0.00     0.239 C 
BRANCH  10  11
HETATM   11  C   UNK N   1     168.118 152.483 154.501  0.00  0.00     0.239 C 
HETATM   12  N   UNK N   1     168.928 151.475 154.051  0.00  0.00    -0.339 N 
HETATM   13  C   UNK N   1     169.292 151.438 152.638  0.00  0.00     0.147 C 
HETATM   14  C   UNK N   1     169.485 150.486 154.999  0.00  0.00     0.137 C 
HETATM   15  C   UNK N   1     169.267 150.021 152.085  0.00  0.00     0.148 C 
HETATM   16  N   UNK N   1     170.060 149.176 152.959  0.00  0.00    -0.357 N 
HETATM   17  C   UNK N   1     170.748 148.074 152.625  0.00  0.00     0.091 A 
HETATM   18  C   UNK N   1     170.178 149.361 154.277  0.00  0.00     0.034 A 
HETATM   19  C   UNK N   1     171.326 147.542 153.770  0.00  0.00     0.019 A 
HETATM   20  C   UNK N   1     170.956 148.363 154.829  0.00  0.00     0.028 A 
HETATM   21  O   UNK N   1     167.859 152.569 155.696  0.00  0.00    -0.271 OA
BRANCH  14  22
HETATM   22  C   UNK N   1     168.368 149.861 155.849  0.00  0.00     0.027 C 
HETATM   23  C   UNK N   1     167.403 149.043 155.009  0.00  0.00     0.007 C 
ENDBRANCH  14  22
ENDBRANCH  10  11
ENDBRANCH   1  10
BRANCH   5  24
HETATM   24  C   UNK N   1     167.240 157.496 156.272  0.00  0.00    -0.021 A 
HETATM   25  C   UNK N   1     167.699 156.676 157.320  0.00  0.00     0.013 A 
HETATM   26  C   UNK N   1     167.634 157.105 158.644  0.00  0.00     0.043 A 
HETATM   27  C   UNK N   1     167.106 158.361 158.944  0.00  0.00     0.116 A 
HETATM   28  F   UNK N   1     167.044 158.774 160.233  0.00  0.00    -0.206 F 
HETATM   29  C   UNK N   1     166.644 159.189 157.915  0.00  0.00     0.043 A 
HETATM   30  C   UNK N   1     166.709 158.759 156.582  0.00  0.00     0.013 A 
ENDBRANCH   5  24
TORSDOF 4
ENDMDL
MODEL 6
REMARK VINA RESULT:      -6.6      1.259      2.368
REMARK  4 active torsions:
REMARK  status: ('A' for Active; 'I' for Inactive)
REMARK    1  A    between atoms: C_3  and  C_2 
REMARK       I    between atoms: N_11  and  C_12 
REMARK    2  A    between atoms: C_12  and  C_14 
REMARK    3  A    between atoms: C_14  and  N_15 
REMARK    4  A    between atoms: C_19  and  C_21 
ROOT
HETATM    1  N   UNK N   1     168.280 152.960 155.056  0.00  0.00    -0.259 N 
HETATM    2  C   UNK N   1     169.296 153.506 154.385  0.00  0.00     0.326 A 
HETATM    3  O   UNK N   1     169.573 154.695 154.415  0.00  0.00    -0.247 OA
HETATM    4  N   UNK N   1     170.025 152.594 153.711  0.00  0.00    -0.321 N 
HETATM    5  C   UNK N   1     169.474 151.265 153.957  0.00  0.00     0.140 A 
HETATM    6  C   UNK N   1     170.462 150.469 154.808  0.00  0.00     0.054 C 
HETATM    7  C   UNK N   1     168.293 151.639 154.826  0.00  0.00     0.261 A 
HETATM    8  O   UNK N   1     167.497 150.857 155.322  0.00  0.00    -0.270 OA
HETATM    9  H   UNK N   1     170.804 152.792 153.142  0.00  0.00     0.165 HD
ENDROOT
BRANCH   1  10
HETATM   10  C   UNK N   1     167.415 153.654 155.988  0.00  0.00     0.239 C 
BRANCH  10  11
HETATM   11  C   UNK N   1     166.840 154.888 155.314  0.00  0.00     0.239 C 
HETATM   12  N   UNK N   1     166.974 156.133 155.868  0.00  0.00    -0.339 N 
HETATM   13  C   UNK N   1     167.782 156.286 157.075  0.00  0.00     0.147 C 
HETATM   14  C   UNK N   1     166.372 157.312 155.210  0.00  0.00     0.137 C 
HETATM   15  C   UNK N   1     167.140 157.245 158.066  0.00  0.00     0.148 C 
HETATM   16  N   UNK N   1     166.817 158.476 157.367  0.00  0.00    -0.357 N 
HETATM   17  C   UNK N   1     166.764 159.715 157.879  0.00  0.00     0.091 A 
HETATM   18  C   UNK N   1     166.468 158.538 156.080  0.00  0.00     0.034 A 
HETATM   19  C   UNK N   1     166.369 160.595 156.880  0.00  0.00     0.019 A 
HETATM   20  C   UNK N   1     166.174 159.840 155.729  0.00  0.00     0.028 A 
HETATM   21  O   UNK N   1     166.223 154.753 154.263  0.00  0.00    -0.271 OA
BRANCH  14  22
HETATM   22  C   UNK N   1     164.881 157.072 154.924  0.00  0.00     0.027 C 
HETATM   23  C   UNK N   1     164.493 157.507 153.522  0.00  0.00     0.007 C 
ENDBRANCH  14  22
ENDBRANCH  10  11
ENDBRANCH   1  10
BRANCH   5  24
HETATM   24  C   UNK N   1     169.115 150.552 152.666  0.00  0.00    -0.021 A 
HETATM   25  C   UNK N   1     169.003 151.275 151.464  0.00  0.00     0.013 A 
HETATM   26  C   UNK N   1     168.657 150.636 150.275  0.00  0.00     0.043 A 
HETATM   27  C   UNK N   1     168.414 149.263 150.268  0.00  0.00     0.116 A 
HETATM   28  F   UNK N   1     168.077 148.646 149.110  0.00  0.00    -0.206 F 
HETATM   29  C   UNK N   1     168.520 148.528 151.454  0.00  0.00     0.043 A 
HETATM   30  C   UNK N   1     168.868 149.169 152.651  0.00  0.00     0.013 A 
ENDBRANCH   5  24
TORSDOF 4
ENDMDL
MODEL 7
REMARK VINA RESULT:      -6.6      2.059      2.900
REMARK  4 active torsions:
REMARK  status: ('A' for Active; 'I' for Inactive)
REMARK    1  A    between atoms: C_3  and  C_2 
REMARK       I    between atoms: N_11  and  C_12 
REMARK    2  A    between atoms: C_12  and  C_14 
REMARK    3  A    between atoms: C_14  and  N_15 
REMARK    4  A    between atoms: C_19  and  C_21 
ROOT
HETATM    1  N   UNK N   1     168.217 153.590 154.611  0.00  0.00    -0.259 N 
HETATM    2  C   UNK N   1     169.390 153.887 154.048  0.00  0.00     0.326 A 
HETATM    3  O   UNK N   1     169.766 155.025 153.815  0.00  0.00    -0.247 OA
HETATM    4  N   UNK N   1     170.146 152.796 153.813  0.00  0.00    -0.321 N 
HETATM    5  C   UNK N   1     169.437 151.611 154.285  0.00  0.00     0.140 A 
HETATM    6  C   UNK N   1     170.163 151.053 155.507  0.00  0.00     0.054 C 
HETATM    7  C   UNK N   1     168.151 152.258 154.752  0.00  0.00     0.261 A 
HETATM    8  O   UNK N   1     167.205 151.677 155.262  0.00  0.00    -0.270 OA
HETATM    9  H   UNK N   1     171.035 152.798 153.389  0.00  0.00     0.165 HD
ENDROOT
BRANCH   1  10
HETATM   10  C   UNK N   1     167.258 154.550 155.118  0.00  0.00     0.239 C 
BRANCH  10  11
HETATM   11  C   UNK N   1     167.472 154.728 156.612  0.00  0.00     0.239 C 
HETATM   12  N   UNK N   1     166.438 154.599 157.502  0.00  0.00    -0.339 N 
HETATM   13  C   UNK N   1     165.132 154.170 157.011  0.00  0.00     0.147 C 
HETATM   14  C   UNK N   1     166.667 154.815 158.947  0.00  0.00     0.137 C 
HETATM   15  C   UNK N   1     164.000 154.942 157.672  0.00  0.00     0.148 C 
HETATM   16  N   UNK N   1     164.181 154.876 159.111  0.00  0.00    -0.357 N 
HETATM   17  C   UNK N   1     163.230 154.912 160.055  0.00  0.00     0.091 A 
HETATM   18  C   UNK N   1     165.371 154.818 159.715  0.00  0.00     0.034 A 
HETATM   19  C   UNK N   1     163.836 154.872 161.303  0.00  0.00     0.019 A 
HETATM   20  C   UNK N   1     165.209 154.817 161.085  0.00  0.00     0.028 A 
HETATM   21  O   UNK N   1     168.591 155.019 157.018  0.00  0.00    -0.271 OA
BRANCH  14  22
HETATM   22  C   UNK N   1     167.343 156.173 159.192  0.00  0.00     0.027 C 
HETATM   23  C   UNK N   1     168.437 156.083 160.242  0.00  0.00     0.007 C 
ENDBRANCH  14  22
ENDBRANCH  10  11
ENDBRANCH   1  10
BRANCH   5  24
HETATM   24  C   UNK N   1     169.267 150.576 153.188  0.00  0.00    -0.021 A 
HETATM   25  C   UNK N   1     169.177 149.210 153.511  0.00  0.00     0.013 A 
HETATM   26  C   UNK N   1     169.038 148.247 152.513  0.00  0.00     0.043 A 
HETATM   27  C   UNK N   1     168.989 148.635 151.174  0.00  0.00     0.116 A 
HETATM   28  F   UNK N   1     168.855 147.697 150.206  0.00  0.00    -0.206 F 
HETATM   29  C   UNK N   1     169.079 149.990 150.835  0.00  0.00     0.043 A 
HETATM   30  C   UNK N   1     169.219 150.959 151.837  0.00  0.00     0.013 A 
ENDBRANCH   5  24
TORSDOF 4
ENDMDL
MODEL 8
REMARK VINA RESULT:      -6.5      6.184      9.131
REMARK  4 active torsions:
REMARK  status: ('A' for Active; 'I' for Inactive)
REMARK    1  A    between atoms: C_3  and  C_2 
REMARK       I    between atoms: N_11  and  C_12 
REMARK    2  A    between atoms: C_12  and  C_14 
REMARK    3  A    between atoms: C_14  and  N_15 
REMARK    4  A    between atoms: C_19  and  C_21 
ROOT
HETATM    1  N   UNK N   1     164.582 161.775 157.601  0.00  0.00    -0.259 N 
HETATM    2  C   UNK N   1     165.329 162.207 156.583  0.00  0.00     0.326 A 
HETATM    3  O   UNK N   1     164.986 163.086 155.809  0.00  0.00    -0.247 OA
HETATM    4  N   UNK N   1     166.535 161.606 156.532  0.00  0.00    -0.321 N 
HETATM    5  C   UNK N   1     166.653 160.673 157.648  0.00  0.00     0.140 A 
HETATM    6  C   UNK N   1     167.686 161.210 158.636  0.00  0.00     0.054 C 
HETATM    7  C   UNK N   1     165.279 160.839 158.260  0.00  0.00     0.261 A 
HETATM    8  O   UNK N   1     164.870 160.268 159.260  0.00  0.00    -0.270 OA
HETATM    9  H   UNK N   1     167.226 161.769 155.849  0.00  0.00     0.165 HD
ENDROOT
BRANCH   1  10
HETATM   10  C   UNK N   1     163.308 162.334 158.008  0.00  0.00     0.239 C 
BRANCH  10  11
HETATM   11  C   UNK N   1     162.189 161.614 157.274  0.00  0.00     0.239 C 
HETATM   12  N   UNK N   1     161.442 160.643 157.886  0.00  0.00    -0.339 N 
HETATM   13  C   UNK N   1     161.657 160.376 159.305  0.00  0.00     0.147 C 
HETATM   14  C   UNK N   1     160.384 159.932 157.136  0.00  0.00     0.137 C 
HETATM   15  C   UNK N   1     161.625 158.886 159.610  0.00  0.00     0.148 C 
HETATM   16  N   UNK N   1     160.410 158.329 159.044  0.00  0.00    -0.357 N 
HETATM   17  C   UNK N   1     159.711 157.274 159.489  0.00  0.00     0.091 A 
HETATM   18  C   UNK N   1     159.827 158.780 157.930  0.00  0.00     0.034 A 
HETATM   19  C   UNK N   1     158.645 157.049 158.630  0.00  0.00     0.019 A 
HETATM   20  C   UNK N   1     158.722 158.010 157.628  0.00  0.00     0.028 A 
HETATM   21  O   UNK N   1     161.974 161.899 156.101  0.00  0.00    -0.271 OA
BRANCH  14  22
HETATM   22  C   UNK N   1     160.942 159.354 155.827  0.00  0.00     0.027 C 
HETATM   23  C   UNK N   1     162.025 158.318 156.077  0.00  0.00     0.007 C 
ENDBRANCH  14  22
ENDBRANCH  10  11
ENDBRANCH   1  10
BRANCH   5  24
HETATM   24  C   UNK N   1     166.975 159.266 157.179  0.00  0.00    -0.021 A 
HETATM   25  C   UNK N   1     167.811 158.436 157.949  0.00  0.00     0.013 A 
HETATM   26  C   UNK N   1     168.130 157.148 157.523  0.00  0.00     0.043 A 
HETATM   27  C   UNK N   1     167.619 156.668 156.318  0.00  0.00     0.116 A 
HETATM   28  F   UNK N   1     167.931 155.416 155.906  0.00  0.00    -0.206 F 
HETATM   29  C   UNK N   1     166.787 157.480 155.538  0.00  0.00     0.043 A 
HETATM   30  C   UNK N   1     166.466 158.776 155.965  0.00  0.00     0.013 A 
ENDBRANCH   5  24
TORSDOF 4
ENDMDL
MODEL 9
REMARK VINA RESULT:      -6.5      4.603      9.860
REMARK  4 active torsions:
REMARK  status: ('A' for Active; 'I' for Inactive)
REMARK    1  A    between atoms: C_3  and  C_2 
REMARK       I    between atoms: N_11  and  C_12 
REMARK    2  A    between atoms: C_12  and  C_14 
REMARK    3  A    between atoms: C_14  and  N_15 
REMARK    4  A    between atoms: C_19  and  C_21 
ROOT
HETATM    1  N   UNK N   1     165.457 158.179 157.113  0.00  0.00    -0.259 N 
HETATM    2  C   UNK N   1     166.655 158.047 157.686  0.00  0.00     0.326 A 
HETATM    3  O   UNK N   1     167.293 157.006 157.703  0.00  0.00    -0.247 OA
HETATM    4  N   UNK N   1     167.116 159.205 158.200  0.00  0.00    -0.321 N 
HETATM    5  C   UNK N   1     166.149 160.265 157.935  0.00  0.00     0.140 A 
HETATM    6  C   UNK N   1     166.743 161.235 156.915  0.00  0.00     0.054 C 
HETATM    7  C   UNK N   1     165.071 159.455 157.249  0.00  0.00     0.261 A 
HETATM    8  O   UNK N   1     164.022 159.897 156.803  0.00  0.00    -0.270 OA
HETATM    9  H   UNK N   1     167.970 159.318 158.679  0.00  0.00     0.165 HD
ENDROOT
BRANCH   1  10
HETATM   10  C   UNK N   1     164.773 157.158 156.345  0.00  0.00     0.239 C 
BRANCH  10  11
HETATM   11  C   UNK N   1     165.526 156.919 155.047  0.00  0.00     0.239 C 
HETATM   12  N   UNK N   1     166.094 155.706 154.764  0.00  0.00    -0.339 N 
HETATM   13  C   UNK N   1     165.873 154.591 155.681  0.00  0.00     0.147 C 
HETATM   14  C   UNK N   1     166.854 155.512 153.510  0.00  0.00     0.137 C 
HETATM   15  C   UNK N   1     167.138 153.769 155.884  0.00  0.00     0.148 C 
HETATM   16  N   UNK N   1     167.666 153.413 154.580  0.00  0.00    -0.357 N 
HETATM   17  C   UNK N   1     168.377 152.323 154.258  0.00  0.00     0.091 A 
HETATM   18  C   UNK N   1     167.553 154.178 153.491  0.00  0.00     0.034 A 
HETATM   19  C   UNK N   1     168.726 152.396 152.916  0.00  0.00     0.019 A 
HETATM   20  C   UNK N   1     168.203 153.587 152.426  0.00  0.00     0.028 A 
HETATM   21  O   UNK N   1     165.643 157.846 154.253  0.00  0.00    -0.271 OA
BRANCH  14  22
HETATM   22  C   UNK N   1     167.933 156.594 153.357  0.00  0.00     0.027 C 
HETATM   23  C   UNK N   1     169.071 156.408 154.346  0.00  0.00     0.007 C 
ENDBRANCH  14  22
ENDBRANCH  10  11
ENDBRANCH   1  10
BRANCH   5  24
HETATM   24  C   UNK N   1     165.708 160.963 159.209  0.00  0.00    -0.021 A 
HETATM   25  C   UNK N   1     165.651 160.253 160.422  0.00  0.00     0.013 A 
HETATM   26  C   UNK N   1     165.232 160.875 161.596  0.00  0.00     0.043 A 
HETATM   27  C   UNK N   1     164.860 162.220 161.576  0.00  0.00     0.116 A 
HETATM   28  F   UNK N   1     164.452 162.821 162.719  0.00  0.00    -0.206 F 
HETATM   29  C   UNK N   1     164.910 162.941 160.378  0.00  0.00     0.043 A 
HETATM   30  C   UNK N   1     165.332 162.316 159.197  0.00  0.00     0.013 A 
ENDBRANCH   5  24
TORSDOF 4
ENDMDL
