MODEL 1
REMARK VINA RESULT:      -6.0      0.000      0.000
REMARK  4 active torsions:
REMARK  status: ('A' for Active; 'I' for Inactive)
REMARK    1  A    between atoms: O_2  and  C_3 
REMARK    2  A    between atoms: C_3  and  C_4 
REMARK    3  A    between atoms: C_3  and  C_18 
REMARK    4  A    between atoms: C_4  and  N_5 
REMARK       I    between atoms: N_5  and  C_6 
REMARK       I    between atoms: C_6  and  N_8 
ROOT
HETATM    1  N   UNK N   1     168.003 151.494 154.442  0.00  0.00    -0.340 N 
HETATM    2  C   UNK N   1     168.266 152.568 155.231  0.00  0.00     0.318 C 
HETATM    3  O   UNK N   1     168.425 152.409 156.435  0.00  0.00    -0.247 OA
HETATM    4  N   UNK N   1     168.361 153.819 154.698  0.00  0.00    -0.334 N 
HETATM    5  C   UNK N   1     168.175 154.053 153.275  0.00  0.00     0.130 C 
HETATM    6  C   UNK N   1     167.113 155.139 153.046  0.00  0.00     0.052 C 
HETATM    7  C   UNK N   1     167.452 156.367 153.894  0.00  0.00     0.128 C 
HETATM    8  O   UNK N   1     166.623 157.484 153.592  0.00  0.00    -0.385 OA
HETATM    9  C   UNK N   1     165.773 157.815 154.673  0.00  0.00     0.168 C 
HETATM   10  C   UNK N   1     166.590 158.224 155.912  0.00  0.00     0.027 C 
HETATM   11  C   UNK N   1     167.714 157.222 156.215  0.00  0.00     0.011 C 
HETATM   12  C   UNK N   1     167.527 155.968 155.378  0.00  0.00     0.033 C 
HETATM   13  C   UNK N   1     168.641 154.955 155.554  0.00  0.00     0.134 C 
HETATM   14  H   UNK N   1     167.850 151.621 153.477  0.00  0.00     0.164 HD
ENDROOT
BRANCH   1  15
HETATM   15  C   UNK N   1     167.944 150.167 155.009  0.00  0.00     0.161 C 
BRANCH  15  16
HETATM   16  C   UNK N   1     169.133 149.306 154.579  0.00  0.00     0.173 C 
BRANCH  16  17
HETATM   17  O   UNK N   1     168.916 148.001 155.043  0.00  0.00    -0.384 OA
HETATM   18  C   UNK N   1     167.882 148.098 155.976  0.00  0.00     0.202 C 
ENDBRANCH  16  17
BRANCH  16  19
HETATM   19  C   UNK N   1     169.344 149.270 153.076  0.00  0.00    -0.006 A 
HETATM   20  C   UNK N   1     168.619 148.365 152.276  0.00  0.00     0.011 A 
HETATM   21  C   UNK N   1     168.816 148.313 150.896  0.00  0.00     0.001 A 
HETATM   22  C   UNK N   1     169.741 149.163 150.292  0.00  0.00     0.002 A 
HETATM   23  C   UNK N   1     170.467 150.069 151.067  0.00  0.00     0.024 A 
HETATM   24  C   UNK N   1     170.277 150.130 152.452  0.00  0.00     0.043 A 
HETATM   25 Cl   UNK N   1     171.219 151.297 153.369  0.00  0.00    -0.084 Cl
ENDBRANCH  16  19
ENDBRANCH  15  16
ENDBRANCH   1  15
TORSDOF 4
ENDMDL
MODEL 2
REMARK VINA RESULT:      -5.9      2.629      7.548
REMARK  4 active torsions:
REMARK  status: ('A' for Active; 'I' for Inactive)
REMARK    1  A    between atoms: O_2  and  C_3 
REMARK    2  A    between atoms: C_3  and  C_4 
REMARK    3  A    between atoms: C_3  and  C_18 
REMARK    4  A    between atoms: C_4  and  N_5 
REMARK       I    between atoms: N_5  and  C_6 
REMARK       I    between atoms: C_6  and  N_8 
ROOT
HETATM    1  N   UNK N   1     167.962 152.439 155.504  0.00  0.00    -0.340 N 
HETATM    2  C   UNK N   1     168.789 152.345 154.432  0.00  0.00     0.318 C 
HETATM    3  O   UNK N   1     169.204 153.366 153.895  0.00  0.00    -0.247 OA
HETATM    4  N   UNK N   1     169.169 151.128 153.948  0.00  0.00    -0.334 N 
HETATM    5  C   UNK N   1     168.698 149.893 154.551  0.00  0.00     0.130 C 
HETATM    6  C   UNK N   1     168.066 148.985 153.485  0.00  0.00     0.052 C 
HETATM    7  C   UNK N   1     169.032 148.836 152.308  0.00  0.00     0.128 C 
HETATM    8  O   UNK N   1     168.600 147.858 151.367  0.00  0.00    -0.385 OA
HETATM    9  C   UNK N   1     168.249 148.441 150.128  0.00  0.00     0.168 C 
HETATM   10  C   UNK N   1     169.461 149.134 149.481  0.00  0.00     0.027 C 
HETATM   11  C   UNK N   1     170.199 150.046 150.474  0.00  0.00     0.011 C 
HETATM   12  C   UNK N   1     169.362 150.223 151.729  0.00  0.00     0.033 C 
HETATM   13  C   UNK N   1     170.052 151.045 152.801  0.00  0.00     0.134 C 
HETATM   14  H   UNK N   1     167.607 151.621 155.923  0.00  0.00     0.164 HD
ENDROOT
BRANCH   1  15
HETATM   15  C   UNK N   1     167.597 153.732 156.034  0.00  0.00     0.161 C 
BRANCH  15  16
HETATM   16  C   UNK N   1     166.102 154.017 155.877  0.00  0.00     0.173 C 
BRANCH  16  17
HETATM   17  O   UNK N   1     165.542 154.126 157.157  0.00  0.00    -0.384 OA
HETATM   18  C   UNK N   1     166.517 154.740 157.946  0.00  0.00     0.202 C 
ENDBRANCH  16  17
BRANCH  16  19
HETATM   19  C   UNK N   1     165.804 155.284 155.095  0.00  0.00    -0.006 A 
HETATM   20  C   UNK N   1     166.850 156.138 154.699  0.00  0.00     0.011 A 
HETATM   21  C   UNK N   1     166.587 157.313 153.993  0.00  0.00     0.001 A 
HETATM   22  C   UNK N   1     165.274 157.653 153.671  0.00  0.00     0.002 A 
HETATM   23  C   UNK N   1     164.223 156.817 154.052  0.00  0.00     0.024 A 
HETATM   24  C   UNK N   1     164.476 155.636 154.760  0.00  0.00     0.043 A 
HETATM   25 Cl   UNK N   1     163.109 154.625 155.205  0.00  0.00    -0.084 Cl
ENDBRANCH  16  19
ENDBRANCH  15  16
ENDBRANCH   1  15
TORSDOF 4
ENDMDL
MODEL 3
REMARK VINA RESULT:      -5.9      2.599      7.764
REMARK  4 active torsions:
REMARK  status: ('A' for Active; 'I' for Inactive)
REMARK    1  A    between atoms: O_2  and  C_3 
REMARK    2  A    between atoms: C_3  and  C_4 
REMARK    3  A    between atoms: C_3  and  C_18 
REMARK    4  A    between atoms: C_4  and  N_5 
REMARK       I    between atoms: N_5  and  C_6 
REMARK       I    between atoms: C_6  and  N_8 
ROOT
HETATM    1  N   UNK N   1     169.149 154.362 154.915  0.00  0.00    -0.340 N 
HETATM    2  C   UNK N   1     168.472 153.242 155.276  0.00  0.00     0.318 C 
HETATM    3  O   UNK N   1     167.637 153.301 156.171  0.00  0.00    -0.247 OA
HETATM    4  N   UNK N   1     168.706 152.053 154.651  0.00  0.00    -0.334 N 
HETATM    5  C   UNK N   1     169.689 151.937 153.587  0.00  0.00     0.130 C 
HETATM    6  C   UNK N   1     170.682 150.807 153.899  0.00  0.00     0.052 C 
HETATM    7  C   UNK N   1     169.909 149.533 154.246  0.00  0.00     0.128 C 
HETATM    8  O   UNK N   1     170.757 148.394 154.360  0.00  0.00    -0.385 OA
HETATM    9  C   UNK N   1     170.811 147.912 155.688  0.00  0.00     0.168 C 
HETATM   10  C   UNK N   1     169.423 147.447 156.164  0.00  0.00     0.027 C 
HETATM   11  C   UNK N   1     168.335 148.491 155.867  0.00  0.00     0.011 C 
HETATM   12  C   UNK N   1     168.980 149.800 155.443  0.00  0.00     0.033 C 
HETATM   13  C   UNK N   1     167.975 150.866 155.050  0.00  0.00     0.134 C 
HETATM   14  H   UNK N   1     169.838 154.313 154.213  0.00  0.00     0.164 HD
ENDROOT
BRANCH   1  15
HETATM   15  C   UNK N   1     168.866 155.625 155.555  0.00  0.00     0.161 C 
BRANCH  15  16
HETATM   16  C   UNK N   1     168.375 156.677 154.559  0.00  0.00     0.173 C 
BRANCH  16  17
HETATM   17  O   UNK N   1     168.882 156.351 153.294  0.00  0.00    -0.384 OA
HETATM   18  C   UNK N   1     169.272 157.563 152.718  0.00  0.00     0.202 C 
ENDBRANCH  16  17
BRANCH  16  19
HETATM   19  C   UNK N   1     166.862 156.775 154.477  0.00  0.00    -0.006 A 
HETATM   20  C   UNK N   1     166.151 156.035 153.512  0.00  0.00     0.011 A 
HETATM   21  C   UNK N   1     164.763 156.129 153.418  0.00  0.00     0.001 A 
HETATM   22  C   UNK N   1     164.060 156.964 154.285  0.00  0.00     0.002 A 
HETATM   23  C   UNK N   1     164.746 157.703 155.250  0.00  0.00     0.024 A 
HETATM   24  C   UNK N   1     166.139 157.616 155.354  0.00  0.00     0.043 A 
HETATM   25 Cl   UNK N   1     166.940 158.569 156.595  0.00  0.00    -0.084 Cl
ENDBRANCH  16  19
ENDBRANCH  15  16
ENDBRANCH   1  15
TORSDOF 4
ENDMDL
MODEL 4
REMARK VINA RESULT:      -5.6      7.963     12.082
REMARK  4 active torsions:
REMARK  status: ('A' for Active; 'I' for Inactive)
REMARK    1  A    between atoms: O_2  and  C_3 
REMARK    2  A    between atoms: C_3  and  C_4 
REMARK    3  A    between atoms: C_3  and  C_18 
REMARK    4  A    between atoms: C_4  and  N_5 
REMARK       I    between atoms: N_5  and  C_6 
REMARK       I    between atoms: C_6  and  N_8 
ROOT
HETATM    1  N   UNK N   1     159.679 158.939 156.199  0.00  0.00    -0.340 N 
HETATM    2  C   UNK N   1     161.006 159.228 156.225  0.00  0.00     0.318 C 
HETATM    3  O   UNK N   1     161.391 160.337 155.873  0.00  0.00    -0.247 OA
HETATM    4  N   UNK N   1     161.914 158.301 156.643  0.00  0.00    -0.334 N 
HETATM    5  C   UNK N   1     161.502 156.973 157.065  0.00  0.00     0.130 C 
HETATM    6  C   UNK N   1     162.282 155.900 156.291  0.00  0.00     0.052 C 
HETATM    7  C   UNK N   1     163.780 156.201 156.376  0.00  0.00     0.128 C 
HETATM    8  O   UNK N   1     164.580 155.149 155.847  0.00  0.00    -0.385 OA
HETATM    9  C   UNK N   1     165.257 155.545 154.671  0.00  0.00     0.168 C 
HETATM   10  C   UNK N   1     166.230 156.703 154.959  0.00  0.00     0.027 C 
HETATM   11  C   UNK N   1     165.562 157.827 155.767  0.00  0.00     0.011 C 
HETATM   12  C   UNK N   1     164.060 157.605 155.813  0.00  0.00     0.033 C 
HETATM   13  C   UNK N   1     163.327 158.626 156.662  0.00  0.00     0.134 C 
HETATM   14  H   UNK N   1     159.368 158.041 156.458  0.00  0.00     0.164 HD
ENDROOT
BRANCH   1  15
HETATM   15  C   UNK N   1     158.721 159.941 155.793  0.00  0.00     0.161 C 
BRANCH  15  16
HETATM   16  C   UNK N   1     157.311 159.624 156.296  0.00  0.00     0.173 C 
BRANCH  16  17
HETATM   17  O   UNK N   1     156.525 160.774 156.144  0.00  0.00    -0.384 OA
HETATM   18  C   UNK N   1     156.543 161.412 157.387  0.00  0.00     0.202 C 
ENDBRANCH  16  17
BRANCH  16  19
HETATM   19  C   UNK N   1     156.650 158.470 155.562  0.00  0.00    -0.006 A 
HETATM   20  C   UNK N   1     156.184 158.638 154.244  0.00  0.00     0.011 A 
HETATM   21  C   UNK N   1     155.561 157.590 153.566  0.00  0.00     0.001 A 
HETATM   22  C   UNK N   1     155.394 156.356 154.193  0.00  0.00     0.002 A 
HETATM   23  C   UNK N   1     155.852 156.169 155.498  0.00  0.00     0.024 A 
HETATM   24  C   UNK N   1     156.479 157.214 156.187  0.00  0.00     0.043 A 
HETATM   25 Cl   UNK N   1     157.037 156.910 157.826  0.00  0.00    -0.084 Cl
ENDBRANCH  16  19
ENDBRANCH  15  16
ENDBRANCH   1  15
TORSDOF 4
ENDMDL
MODEL 5
REMARK VINA RESULT:      -5.6      2.676      7.748
REMARK  4 active torsions:
REMARK  status: ('A' for Active; 'I' for Inactive)
REMARK    1  A    between atoms: O_2  and  C_3 
REMARK    2  A    between atoms: C_3  and  C_4 
REMARK    3  A    between atoms: C_3  and  C_18 
REMARK    4  A    between atoms: C_4  and  N_5 
REMARK       I    between atoms: N_5  and  C_6 
REMARK       I    between atoms: C_6  and  N_8 
ROOT
HETATM    1  N   UNK N   1     168.165 154.364 155.007  0.00  0.00    -0.340 N 
HETATM    2  C   UNK N   1     169.097 153.772 154.217  0.00  0.00     0.318 C 
HETATM    3  O   UNK N   1     169.683 154.435 153.370  0.00  0.00    -0.247 OA
HETATM    4  N   UNK N   1     169.391 152.448 154.359  0.00  0.00    -0.334 N 
HETATM    5  C   UNK N   1     168.718 151.623 155.347  0.00  0.00     0.130 C 
HETATM    6  C   UNK N   1     168.117 150.376 154.682  0.00  0.00     0.052 C 
HETATM    7  C   UNK N   1     169.191 149.681 153.842  0.00  0.00     0.128 C 
HETATM    8  O   UNK N   1     168.765 148.415 153.350  0.00  0.00    -0.385 OA
HETATM    9  C   UNK N   1     168.629 148.418 151.942  0.00  0.00     0.168 C 
HETATM   10  C   UNK N   1     169.979 148.699 151.258  0.00  0.00     0.027 C 
HETATM   11  C   UNK N   1     170.693 149.913 151.873  0.00  0.00     0.011 C 
HETATM   12  C   UNK N   1     169.740 150.660 152.790  0.00  0.00     0.033 C 
HETATM   13  C   UNK N   1     170.388 151.830 153.506  0.00  0.00     0.134 C 
HETATM   14  H   UNK N   1     167.674 153.829 155.673  0.00  0.00     0.164 HD
ENDROOT
BRANCH   1  15
HETATM   15  C   UNK N   1     167.888 155.776 154.878  0.00  0.00     0.161 C 
BRANCH  15  16
HETATM   16  C   UNK N   1     166.974 156.287 155.992  0.00  0.00     0.173 C 
BRANCH  16  17
HETATM   17  O   UNK N   1     166.955 157.687 155.934  0.00  0.00    -0.384 OA
HETATM   18  C   UNK N   1     167.168 158.124 157.244  0.00  0.00     0.202 C 
ENDBRANCH  16  17
BRANCH  16  19
HETATM   19  C   UNK N   1     165.550 155.767 155.897  0.00  0.00    -0.006 A 
HETATM   20  C   UNK N   1     164.772 156.031 154.753  0.00  0.00     0.011 A 
HETATM   21  C   UNK N   1     163.458 155.571 154.660  0.00  0.00     0.001 A 
HETATM   22  C   UNK N   1     162.900 154.840 155.708  0.00  0.00     0.002 A 
HETATM   23  C   UNK N   1     163.657 154.565 156.848  0.00  0.00     0.024 A 
HETATM   24  C   UNK N   1     164.976 155.022 156.951  0.00  0.00     0.043 A 
HETATM   25 Cl   UNK N   1     165.876 154.636 158.411  0.00  0.00    -0.084 Cl
ENDBRANCH  16  19
ENDBRANCH  15  16
ENDBRANCH   1  15
TORSDOF 4
ENDMDL
MODEL 6
REMARK VINA RESULT:      -5.6      4.987      9.534
REMARK  4 active torsions:
REMARK  status: ('A' for Active; 'I' for Inactive)
REMARK    1  A    between atoms: O_2  and  C_3 
REMARK    2  A    between atoms: C_3  and  C_4 
REMARK    3  A    between atoms: C_3  and  C_18 
REMARK    4  A    between atoms: C_4  and  N_5 
REMARK       I    between atoms: N_5  and  C_6 
REMARK       I    between atoms: C_6  and  N_8 
ROOT
HETATM    1  N   UNK N   1     163.932 158.535 156.129  0.00  0.00    -0.340 N 
HETATM    2  C   UNK N   1     164.246 157.224 155.970  0.00  0.00     0.318 C 
HETATM    3  O   UNK N   1     163.886 156.409 156.812  0.00  0.00    -0.247 OA
HETATM    4  N   UNK N   1     164.952 156.802 154.883  0.00  0.00    -0.334 N 
HETATM    5  C   UNK N   1     165.402 157.734 153.864  0.00  0.00     0.130 C 
HETATM    6  C   UNK N   1     166.914 157.586 153.634  0.00  0.00     0.052 C 
HETATM    7  C   UNK N   1     167.249 156.112 153.396  0.00  0.00     0.128 C 
HETATM    8  O   UNK N   1     168.599 155.919 152.986  0.00  0.00    -0.385 OA
HETATM    9  C   UNK N   1     169.351 155.230 153.966  0.00  0.00     0.168 C 
HETATM   10  C   UNK N   1     168.783 153.820 154.209  0.00  0.00     0.027 C 
HETATM   11  C   UNK N   1     167.260 153.843 154.415  0.00  0.00     0.011 C 
HETATM   12  C   UNK N   1     166.787 155.274 154.601  0.00  0.00     0.033 C 
HETATM   13  C   UNK N   1     165.280 155.398 154.730  0.00  0.00     0.134 C 
HETATM   14  H   UNK N   1     164.240 159.196 155.467  0.00  0.00     0.164 HD
ENDROOT
BRANCH   1  15
HETATM   15  C   UNK N   1     163.148 158.967 157.263  0.00  0.00     0.161 C 
BRANCH  15  16
HETATM   16  C   UNK N   1     163.716 160.235 157.904  0.00  0.00     0.173 C 
BRANCH  16  17
HETATM   17  O   UNK N   1     163.110 160.399 159.157  0.00  0.00    -0.384 OA
HETATM   18  C   UNK N   1     162.661 161.722 159.189  0.00  0.00     0.202 C 
ENDBRANCH  16  17
BRANCH  16  19
HETATM   19  C   UNK N   1     165.224 160.203 158.082  0.00  0.00    -0.006 A 
HETATM   20  C   UNK N   1     165.820 159.246 158.926  0.00  0.00     0.011 A 
HETATM   21  C   UNK N   1     167.203 159.217 159.109  0.00  0.00     0.001 A 
HETATM   22  C   UNK N   1     168.013 160.142 158.452  0.00  0.00     0.002 A 
HETATM   23  C   UNK N   1     167.440 161.096 157.609  0.00  0.00     0.024 A 
HETATM   24  C   UNK N   1     166.055 161.133 157.418  0.00  0.00     0.043 A 
HETATM   25 Cl   UNK N   1     165.399 162.356 156.338  0.00  0.00    -0.084 Cl
ENDBRANCH  16  19
ENDBRANCH  15  16
ENDBRANCH   1  15
TORSDOF 4
ENDMDL
MODEL 7
REMARK VINA RESULT:      -5.5      9.931     13.793
REMARK  4 active torsions:
REMARK  status: ('A' for Active; 'I' for Inactive)
REMARK    1  A    between atoms: O_2  and  C_3 
REMARK    2  A    between atoms: C_3  and  C_4 
REMARK    3  A    between atoms: C_3  and  C_18 
REMARK    4  A    between atoms: C_4  and  N_5 
REMARK       I    between atoms: N_5  and  C_6 
REMARK       I    between atoms: C_6  and  N_8 
ROOT
HETATM    1  N   UNK N   1     156.599 159.742 157.351  0.00  0.00    -0.340 N 
HETATM    2  C   UNK N   1     157.878 159.942 156.944  0.00  0.00     0.318 C 
HETATM    3  O   UNK N   1     158.106 160.705 156.013  0.00  0.00    -0.247 OA
HETATM    4  N   UNK N   1     158.914 159.307 157.563  0.00  0.00    -0.334 N 
HETATM    5  C   UNK N   1     158.689 158.391 158.669  0.00  0.00     0.130 C 
HETATM    6  C   UNK N   1     159.361 157.038 158.387  0.00  0.00     0.052 C 
HETATM    7  C   UNK N   1     160.820 157.269 157.988  0.00  0.00     0.128 C 
HETATM    8  O   UNK N   1     161.560 156.056 157.897  0.00  0.00    -0.385 OA
HETATM    9  C   UNK N   1     161.949 155.777 156.567  0.00  0.00     0.168 C 
HETATM   10  C   UNK N   1     162.880 156.875 156.022  0.00  0.00     0.027 C 
HETATM   11  C   UNK N   1     162.322 158.282 156.283  0.00  0.00     0.011 C 
HETATM   12  C   UNK N   1     160.881 158.186 156.754  0.00  0.00     0.033 C 
HETATM   13  C   UNK N   1     160.275 159.529 157.115  0.00  0.00     0.134 C 
HETATM   14  H   UNK N   1     156.409 159.112 158.083  0.00  0.00     0.164 HD
ENDROOT
BRANCH   1  15
HETATM   15  C   UNK N   1     155.511 160.450 156.716  0.00  0.00     0.161 C 
BRANCH  15  16
HETATM   16  C   UNK N   1     154.416 159.501 156.226  0.00  0.00     0.173 C 
BRANCH  16  17
HETATM   17  O   UNK N   1     153.532 160.233 155.422  0.00  0.00    -0.384 OA
HETATM   18  C   UNK N   1     154.004 161.548 155.439  0.00  0.00     0.202 C 
ENDBRANCH  16  17
BRANCH  16  19
HETATM   19  C   UNK N   1     154.946 158.319 155.434  0.00  0.00    -0.006 A 
HETATM   20  C   UNK N   1     155.522 158.514 154.164  0.00  0.00     0.011 A 
HETATM   21  C   UNK N   1     155.999 157.434 153.420  0.00  0.00     0.001 A 
HETATM   22  C   UNK N   1     155.908 156.141 153.933  0.00  0.00     0.002 A 
HETATM   23  C   UNK N   1     155.343 155.928 155.192  0.00  0.00     0.024 A 
HETATM   24  C   UNK N   1     154.863 157.004 155.946  0.00  0.00     0.043 A 
HETATM   25 Cl   UNK N   1     154.169 156.667 157.526  0.00  0.00    -0.084 Cl
ENDBRANCH  16  19
ENDBRANCH  15  16
ENDBRANCH   1  15
TORSDOF 4
ENDMDL
MODEL 8
REMARK VINA RESULT:      -5.5     12.556     14.669
REMARK  4 active torsions:
REMARK  status: ('A' for Active; 'I' for Inactive)
REMARK    1  A    between atoms: O_2  and  C_3 
REMARK    2  A    between atoms: C_3  and  C_4 
REMARK    3  A    between atoms: C_3  and  C_18 
REMARK    4  A    between atoms: C_4  and  N_5 
REMARK       I    between atoms: N_5  and  C_6 
REMARK       I    between atoms: C_6  and  N_8 
ROOT
HETATM    1  N   UNK N   1     156.208 146.561 161.060  0.00  0.00    -0.340 N 
HETATM    2  C   UNK N   1     155.627 146.277 159.866  0.00  0.00     0.318 C 
HETATM    3  O   UNK N   1     155.130 145.173 159.682  0.00  0.00    -0.247 OA
HETATM    4  N   UNK N   1     155.584 147.209 158.872  0.00  0.00    -0.334 N 
HETATM    5  C   UNK N   1     156.164 148.530 159.047  0.00  0.00     0.130 C 
HETATM    6  C   UNK N   1     157.146 148.838 157.906  0.00  0.00     0.052 C 
HETATM    7  C   UNK N   1     156.461 148.574 156.563  0.00  0.00     0.128 C 
HETATM    8  O   UNK N   1     157.240 149.018 155.457  0.00  0.00    -0.385 OA
HETATM    9  C   UNK N   1     157.695 147.936 154.668  0.00  0.00     0.168 C 
HETATM   10  C   UNK N   1     156.513 147.160 154.060  0.00  0.00     0.027 C 
HETATM   11  C   UNK N   1     155.443 146.828 155.112  0.00  0.00     0.011 C 
HETATM   12  C   UNK N   1     155.983 147.113 156.503  0.00  0.00     0.033 C 
HETATM   13  C   UNK N   1     154.961 146.890 157.602  0.00  0.00     0.134 C 
HETATM   14  H   UNK N   1     156.629 147.439 161.204  0.00  0.00     0.164 HD
ENDROOT
BRANCH   1  15
HETATM   15  C   UNK N   1     156.212 145.581 162.121  0.00  0.00     0.161 C 
BRANCH  15  16
HETATM   16  C   UNK N   1     157.615 145.033 162.392  0.00  0.00     0.173 C 
BRANCH  16  17
HETATM   17  O   UNK N   1     157.614 144.441 163.662  0.00  0.00    -0.384 OA
HETATM   18  C   UNK N   1     158.816 144.827 164.260  0.00  0.00     0.202 C 
ENDBRANCH  16  17
BRANCH  16  19
HETATM   19  C   UNK N   1     158.075 144.011 161.368  0.00  0.00    -0.006 A 
HETATM   20  C   UNK N   1     157.612 142.683 161.429  0.00  0.00     0.011 A 
HETATM   21  C   UNK N   1     158.040 141.732 160.502  0.00  0.00     0.001 A 
HETATM   22  C   UNK N   1     158.939 142.092 159.499  0.00  0.00     0.002 A 
HETATM   23  C   UNK N   1     159.407 143.404 159.420  0.00  0.00     0.024 A 
HETATM   24  C   UNK N   1     158.983 144.366 160.344  0.00  0.00     0.043 A 
HETATM   25 Cl   UNK N   1     159.607 146.002 160.184  0.00  0.00    -0.084 Cl
ENDBRANCH  16  19
ENDBRANCH  15  16
ENDBRANCH   1  15
TORSDOF 4
ENDMDL
MODEL 9
REMARK VINA RESULT:      -5.5      7.653     12.118
REMARK  4 active torsions:
REMARK  status: ('A' for Active; 'I' for Inactive)
REMARK    1  A    between atoms: O_2  and  C_3 
REMARK    2  A    between atoms: C_3  and  C_4 
REMARK    3  A    between atoms: C_3  and  C_18 
REMARK    4  A    between atoms: C_4  and  N_5 
REMARK       I    between atoms: N_5  and  C_6 
REMARK       I    between atoms: C_6  and  N_8 
ROOT
HETATM    1  N   UNK N   1     160.710 158.362 156.359  0.00  0.00    -0.340 N 
HETATM    2  C   UNK N   1     162.013 158.737 156.417  0.00  0.00     0.318 C 
HETATM    3  O   UNK N   1     162.298 159.925 156.508  0.00  0.00    -0.247 OA
HETATM    4  N   UNK N   1     163.010 157.807 156.380  0.00  0.00    -0.334 N 
HETATM    5  C   UNK N   1     162.717 156.388 156.269  0.00  0.00     0.130 C 
HETATM    6  C   UNK N   1     163.487 155.775 155.089  0.00  0.00     0.052 C 
HETATM    7  C   UNK N   1     164.966 156.153 155.196  0.00  0.00     0.128 C 
HETATM    8  O   UNK N   1     165.776 155.466 154.248  0.00  0.00    -0.385 OA
HETATM    9  C   UNK N   1     166.319 156.347 153.286  0.00  0.00     0.168 C 
HETATM   10  C   UNK N   1     167.243 157.386 153.947  0.00  0.00     0.027 C 
HETATM   11  C   UNK N   1     166.585 158.041 155.172  0.00  0.00     0.011 C 
HETATM   12  C   UNK N   1     165.109 157.685 155.216  0.00  0.00     0.033 C 
HETATM   13  C   UNK N   1     164.396 158.225 156.442  0.00  0.00     0.134 C 
HETATM   14  H   UNK N   1     160.477 157.410 156.261  0.00  0.00     0.164 HD
ENDROOT
BRANCH   1  15
HETATM   15  C   UNK N   1     159.660 159.351 156.439  0.00  0.00     0.161 C 
BRANCH  15  16
HETATM   16  C   UNK N   1     158.317 158.734 156.830  0.00  0.00     0.173 C 
BRANCH  16  17
HETATM   17  O   UNK N   1     158.351 158.448 158.202  0.00  0.00    -0.384 OA
HETATM   18  C   UNK N   1     157.833 157.157 158.333  0.00  0.00     0.202 C 
ENDBRANCH  16  17
BRANCH  16  19
HETATM   19  C   UNK N   1     157.127 159.632 156.540  0.00  0.00    -0.006 A 
HETATM   20  C   UNK N   1     157.050 160.917 157.111  0.00  0.00     0.011 A 
HETATM   21  C   UNK N   1     155.955 161.745 156.863  0.00  0.00     0.001 A 
HETATM   22  C   UNK N   1     154.919 161.304 156.041  0.00  0.00     0.002 A 
HETATM   23  C   UNK N   1     154.980 160.034 155.463  0.00  0.00     0.024 A 
HETATM   24  C   UNK N   1     156.074 159.196 155.705  0.00  0.00     0.043 A 
HETATM   25 Cl   UNK N   1     156.090 157.612 154.941  0.00  0.00    -0.084 Cl
ENDBRANCH  16  19
ENDBRANCH  15  16
ENDBRANCH   1  15
TORSDOF 4
ENDMDL
