MODEL 1
REMARK VINA RESULT:      -6.7      0.000      0.000
REMARK  4 active torsions:
REMARK  status: ('A' for Active; 'I' for Inactive)
REMARK    1  A    between atoms: C_4  and  C_5 
REMARK    2  A    between atoms: C_7  and  C_8 
REMARK       I    between atoms: C_8  and  N_10 
REMARK    3  A    between atoms: C_14  and  C_16 
REMARK    4  A    between atoms: C_16  and  O_17 
ROOT
HETATM    1  C   UNK N   1     167.334 154.953 154.283  0.00  0.00     0.048 A 
HETATM    2  C   UNK N   1     166.199 154.631 155.078  0.00  0.00     0.048 A 
HETATM    3  C   UNK N   1     166.131 155.069 156.418  0.00  0.00     0.051 A 
HETATM    4  C   UNK N   1     167.205 155.814 156.902  0.00  0.00     0.057 A 
HETATM    5  C   UNK N   1     167.510 156.404 158.109  0.00  0.00     0.044 A 
HETATM    6  C   UNK N   1     166.687 156.404 159.350  0.00  0.00     0.071 C 
HETATM    7  N   UNK N   1     168.716 157.011 157.996  0.00  0.00    -0.263 N 
ATOM      8  HN  UNK N   1     169.202 157.530 158.726  1.00  0.00     0.194 HD
HETATM    9  O   UNK N   1     169.143 156.808 156.776  0.00  0.00    -0.219 OA
HETATM   10  C   UNK N   1     168.267 156.101 156.106  0.00  0.00     0.184 A 
HETATM   11  N   UNK N   1     168.355 155.691 154.821  0.00  0.00    -0.334 N 
ATOM     12  HN  UNK N   1     169.173 155.928 154.258  1.00  0.00     0.168 HD
ENDROOT
BRANCH   3  13
HETATM   13  C   UNK N   1     164.969 154.740 157.267  0.00  0.00     0.255 C 
HETATM   14  O   UNK N   1     164.928 153.643 157.807  0.00  0.00    -0.267 OA
HETATM   15  N   UNK N   1     163.953 155.633 157.444  0.00  0.00    -0.347 N 
HETATM   16  C   UNK N   1     163.995 156.928 156.788  0.00  0.00     0.126 C 
HETATM   17  C   UNK N   1     162.809 155.286 158.283  0.00  0.00     0.137 C 
HETATM   18  C   UNK N   1     162.685 157.179 156.042  0.00  0.00     0.021 C 
HETATM   19  C   UNK N   1     161.442 156.880 156.902  0.00  0.00     0.014 C 
HETATM   20  C   UNK N   1     161.760 156.411 158.333  0.00  0.00    -0.006 C 
HETATM   21  C   UNK N   1     162.295 157.575 159.154  0.00  0.00     0.019 C 
BRANCH  20  22
HETATM   22  C   UNK N   1     160.489 155.931 159.024  0.00  0.00     0.175 C 
BRANCH  22  23
HETATM   23  O   UNK N   1     160.734 154.824 159.840  0.00  0.00    -0.400 OA
HETATM   24  H   UNK N   1     159.991 154.701 160.451  0.00  0.00     0.209 HD
ENDBRANCH  22  23
ENDBRANCH  20  22
ENDBRANCH   3  13
BRANCH   1  25
HETATM   25  C   UNK N   1     167.419 154.499 152.880  0.00  0.00     0.022 A 
HETATM   26  C   UNK N   1     166.846 155.120 151.782  0.00  0.00     0.048 A 
HETATM   27  C   UNK N   1     167.203 154.328 150.705  0.00  0.00     0.050 A 
HETATM   28  C   UNK N   1     166.826 154.577 149.288  0.00  0.00     0.076 C 
HETATM   29  O   UNK N   1     167.931 153.310 151.100  0.00  0.00    -0.319 OA
HETATM   30  C   UNK N   1     168.081 153.380 152.399  0.00  0.00     0.062 A 
HETATM   31  C   UNK N   1     168.856 152.384 153.191  0.00  0.00     0.077 C 
ENDBRANCH   1  25
TORSDOF 4
ENDMDL
MODEL 2
REMARK VINA RESULT:      -6.7      2.812      4.716
REMARK  4 active torsions:
REMARK  status: ('A' for Active; 'I' for Inactive)
REMARK    1  A    between atoms: C_4  and  C_5 
REMARK    2  A    between atoms: C_7  and  C_8 
REMARK       I    between atoms: C_8  and  N_10 
REMARK    3  A    between atoms: C_14  and  C_16 
REMARK    4  A    between atoms: C_16  and  O_17 
ROOT
HETATM    1  C   UNK N   1     166.474 154.243 155.264  0.00  0.00     0.048 A 
HETATM    2  C   UNK N   1     166.138 155.623 155.178  0.00  0.00     0.048 A 
HETATM    3  C   UNK N   1     165.112 156.150 155.991  0.00  0.00     0.051 A 
HETATM    4  C   UNK N   1     164.467 155.269 156.858  0.00  0.00     0.057 A 
HETATM    5  C   UNK N   1     163.452 155.386 157.782  0.00  0.00     0.044 A 
HETATM    6  C   UNK N   1     162.691 156.615 158.139  0.00  0.00     0.071 C 
HETATM    7  N   UNK N   1     163.240 154.171 158.341  0.00  0.00    -0.263 N 
ATOM      8  HN  UNK N   1     162.551 153.948 159.058  1.00  0.00     0.194 HD
HETATM    9  O   UNK N   1     164.084 153.335 157.792  0.00  0.00    -0.219 OA
HETATM   10  C   UNK N   1     164.823 153.959 156.909  0.00  0.00     0.184 A 
HETATM   11  N   UNK N   1     165.801 153.432 156.139  0.00  0.00    -0.334 N 
ATOM     12  HN  UNK N   1     166.035 152.441 156.208  1.00  0.00     0.168 HD
ENDROOT
BRANCH   3  13
HETATM   13  C   UNK N   1     164.738 157.576 155.915  0.00  0.00     0.255 C 
HETATM   14  O   UNK N   1     163.927 157.926 155.068  0.00  0.00    -0.267 OA
HETATM   15  N   UNK N   1     165.288 158.494 156.762  0.00  0.00    -0.347 N 
HETATM   16  C   UNK N   1     166.263 158.078 157.755  0.00  0.00     0.126 C 
HETATM   17  C   UNK N   1     164.909 159.901 156.666  0.00  0.00     0.137 C 
HETATM   18  C   UNK N   1     167.505 158.965 157.669  0.00  0.00     0.021 C 
HETATM   19  C   UNK N   1     167.164 160.467 157.621  0.00  0.00     0.014 C 
HETATM   20  C   UNK N   1     165.658 160.776 157.687  0.00  0.00    -0.006 C 
HETATM   21  C   UNK N   1     165.131 160.498 159.087  0.00  0.00     0.019 C 
BRANCH  20  22
HETATM   22  C   UNK N   1     165.412 162.255 157.409  0.00  0.00     0.175 C 
BRANCH  22  23
HETATM   23  O   UNK N   1     165.701 162.584 156.082  0.00  0.00    -0.400 OA
HETATM   24  H   UNK N   1     165.946 163.521 156.027  0.00  0.00     0.209 HD
ENDBRANCH  22  23
ENDBRANCH  20  22
ENDBRANCH   3  13
BRANCH   1  25
HETATM   25  C   UNK N   1     167.544 153.679 154.416  0.00  0.00     0.022 A 
HETATM   26  C   UNK N   1     168.426 152.672 154.774  0.00  0.00     0.048 A 
HETATM   27  C   UNK N   1     169.226 152.494 153.659  0.00  0.00     0.050 A 
HETATM   28  C   UNK N   1     170.339 151.514 153.543  0.00  0.00     0.076 C 
HETATM   29  O   UNK N   1     168.871 153.316 152.699  0.00  0.00    -0.319 OA
HETATM   30  C   UNK N   1     167.864 154.041 153.118  0.00  0.00     0.062 A 
HETATM   31  C   UNK N   1     167.201 155.084 152.285  0.00  0.00     0.077 C 
ENDBRANCH   1  25
TORSDOF 4
ENDMDL
MODEL 3
REMARK VINA RESULT:      -6.6      3.152      5.562
REMARK  4 active torsions:
REMARK  status: ('A' for Active; 'I' for Inactive)
REMARK    1  A    between atoms: C_4  and  C_5 
REMARK    2  A    between atoms: C_7  and  C_8 
REMARK       I    between atoms: C_8  and  N_10 
REMARK    3  A    between atoms: C_14  and  C_16 
REMARK    4  A    between atoms: C_16  and  O_17 
ROOT
HETATM    1  C   UNK N   1     168.703 151.296 153.982  0.00  0.00     0.048 A 
HETATM    2  C   UNK N   1     167.986 151.894 155.055  0.00  0.00     0.048 A 
HETATM    3  C   UNK N   1     167.418 153.176 154.895  0.00  0.00     0.051 A 
HETATM    4  C   UNK N   1     167.594 153.804 153.663  0.00  0.00     0.057 A 
HETATM    5  C   UNK N   1     167.210 155.013 153.127  0.00  0.00     0.044 A 
HETATM    6  C   UNK N   1     166.421 156.087 153.791  0.00  0.00     0.071 C 
HETATM    7  N   UNK N   1     167.671 155.083 151.855  0.00  0.00    -0.263 N 
ATOM      8  HN  UNK N   1     167.542 155.860 151.208  1.00  0.00     0.194 HD
HETATM    9  O   UNK N   1     168.314 153.970 151.611  0.00  0.00    -0.219 OA
HETATM   10  C   UNK N   1     168.284 153.194 152.665  0.00  0.00     0.184 A 
HETATM   11  N   UNK N   1     168.837 151.967 152.795  0.00  0.00    -0.334 N 
ATOM     12  HN  UNK N   1     169.349 151.546 152.019  1.00  0.00     0.168 HD
ENDROOT
BRANCH   3  13
HETATM   13  C   UNK N   1     166.677 153.822 155.997  0.00  0.00     0.255 C 
HETATM   14  O   UNK N   1     165.499 153.537 156.159  0.00  0.00    -0.267 OA
HETATM   15  N   UNK N   1     167.286 154.728 156.817  0.00  0.00    -0.347 N 
HETATM   16  C   UNK N   1     168.680 155.078 156.611  0.00  0.00     0.126 C 
HETATM   17  C   UNK N   1     166.534 155.361 157.896  0.00  0.00     0.137 C 
HETATM   18  C   UNK N   1     168.835 156.597 156.555  0.00  0.00     0.021 C 
HETATM   19  C   UNK N   1     168.104 157.314 157.707  0.00  0.00     0.014 C 
HETATM   20  C   UNK N   1     167.387 156.369 158.687  0.00  0.00    -0.006 C 
HETATM   21  C   UNK N   1     168.409 155.624 159.533  0.00  0.00     0.019 C 
BRANCH  20  22
HETATM   22  C   UNK N   1     166.517 157.171 159.649  0.00  0.00     0.175 C 
BRANCH  22  23
HETATM   23  O   UNK N   1     167.284 158.018 160.451  0.00  0.00    -0.400 OA
HETATM   24  H   UNK N   1     166.736 158.368 161.170  0.00  0.00     0.209 HD
ENDBRANCH  22  23
ENDBRANCH  20  22
ENDBRANCH   3  13
BRANCH   1  25
HETATM   25  C   UNK N   1     169.304 149.956 154.137  0.00  0.00     0.022 A 
HETATM   26  C   UNK N   1     170.156 149.553 155.152  0.00  0.00     0.048 A 
HETATM   27  C   UNK N   1     170.443 148.230 154.867  0.00  0.00     0.050 A 
HETATM   28  C   UNK N   1     171.326 147.345 155.671  0.00  0.00     0.076 C 
HETATM   29  O   UNK N   1     169.824 147.848 153.774  0.00  0.00    -0.319 OA
HETATM   30  C   UNK N   1     169.131 148.858 153.309  0.00  0.00     0.062 A 
HETATM   31  C   UNK N   1     168.299 148.784 152.075  0.00  0.00     0.077 C 
ENDBRANCH   1  25
TORSDOF 4
ENDMDL
MODEL 4
REMARK VINA RESULT:      -6.6      2.825      4.756
REMARK  4 active torsions:
REMARK  status: ('A' for Active; 'I' for Inactive)
REMARK    1  A    between atoms: C_4  and  C_5 
REMARK    2  A    between atoms: C_7  and  C_8 
REMARK       I    between atoms: C_8  and  N_10 
REMARK    3  A    between atoms: C_14  and  C_16 
REMARK    4  A    between atoms: C_16  and  O_17 
ROOT
HETATM    1  C   UNK N   1     168.285 151.796 154.623  0.00  0.00     0.048 A 
HETATM    2  C   UNK N   1     167.860 152.790 155.548  0.00  0.00     0.048 A 
HETATM    3  C   UNK N   1     167.569 154.094 155.095  0.00  0.00     0.051 A 
HETATM    4  C   UNK N   1     167.716 154.346 153.732  0.00  0.00     0.057 A 
HETATM    5  C   UNK N   1     167.538 155.447 152.924  0.00  0.00     0.044 A 
HETATM    6  C   UNK N   1     167.093 156.808 153.335  0.00  0.00     0.071 C 
HETATM    7  N   UNK N   1     167.835 155.096 151.650  0.00  0.00    -0.263 N 
ATOM      8  HN  UNK N   1     167.796 155.702 150.832  1.00  0.00     0.194 HD
HETATM    9  O   UNK N   1     168.184 153.835 151.664  0.00  0.00    -0.219 OA
HETATM   10  C   UNK N   1     168.122 153.366 152.884  0.00  0.00     0.184 A 
HETATM   11  N   UNK N   1     168.408 152.109 153.295  0.00  0.00    -0.334 N 
ATOM     12  HN  UNK N   1     168.712 151.403 152.624  1.00  0.00     0.168 HD
ENDROOT
BRANCH   3  13
HETATM   13  C   UNK N   1     167.134 155.146 156.036  0.00  0.00     0.255 C 
HETATM   14  O   UNK N   1     167.980 155.882 156.526  0.00  0.00    -0.267 OA
HETATM   15  N   UNK N   1     165.818 155.296 156.364  0.00  0.00    -0.347 N 
HETATM   16  C   UNK N   1     164.818 154.410 155.794  0.00  0.00     0.126 C 
HETATM   17  C   UNK N   1     165.409 156.338 157.302  0.00  0.00     0.137 C 
HETATM   18  C   UNK N   1     163.946 153.824 156.904  0.00  0.00     0.021 C 
HETATM   19  C   UNK N   1     163.441 154.892 157.893  0.00  0.00     0.014 C 
HETATM   20  C   UNK N   1     163.893 156.325 157.562  0.00  0.00    -0.006 C 
HETATM   21  C   UNK N   1     163.156 156.830 156.330  0.00  0.00     0.019 C 
BRANCH  20  22
HETATM   22  C   UNK N   1     163.536 157.267 158.707  0.00  0.00     0.175 C 
BRANCH  22  23
HETATM   23  O   UNK N   1     162.874 156.596 159.738  0.00  0.00    -0.400 OA
HETATM   24  H   UNK N   1     161.995 156.323 159.433  0.00  0.00     0.209 HD
ENDBRANCH  22  23
ENDBRANCH  20  22
ENDBRANCH   3  13
BRANCH   1  25
HETATM   25  C   UNK N   1     168.596 150.427 155.084  0.00  0.00     0.022 A 
HETATM   26  C   UNK N   1     167.691 149.510 155.593  0.00  0.00     0.048 A 
HETATM   27  C   UNK N   1     168.451 148.389 155.878  0.00  0.00     0.050 A 
HETATM   28  C   UNK N   1     167.933 147.118 156.450  0.00  0.00     0.076 C 
HETATM   29  O   UNK N   1     169.711 148.594 155.572  0.00  0.00    -0.319 OA
HETATM   30  C   UNK N   1     169.835 149.806 155.093  0.00  0.00     0.062 A 
HETATM   31  C   UNK N   1     171.133 150.381 154.640  0.00  0.00     0.077 C 
ENDBRANCH   1  25
TORSDOF 4
ENDMDL
MODEL 5
REMARK VINA RESULT:      -6.6      2.723      4.390
REMARK  4 active torsions:
REMARK  status: ('A' for Active; 'I' for Inactive)
REMARK    1  A    between atoms: C_4  and  C_5 
REMARK    2  A    between atoms: C_7  and  C_8 
REMARK       I    between atoms: C_8  and  N_10 
REMARK    3  A    between atoms: C_14  and  C_16 
REMARK    4  A    between atoms: C_16  and  O_17 
ROOT
HETATM    1  C   UNK N   1     169.033 152.229 154.625  0.00  0.00     0.048 A 
HETATM    2  C   UNK N   1     167.819 152.561 155.288  0.00  0.00     0.048 A 
HETATM    3  C   UNK N   1     167.319 153.879 155.221  0.00  0.00     0.051 A 
HETATM    4  C   UNK N   1     168.058 154.807 154.489  0.00  0.00     0.057 A 
HETATM    5  C   UNK N   1     167.915 156.145 154.192  0.00  0.00     0.044 A 
HETATM    6  C   UNK N   1     166.815 157.053 154.619  0.00  0.00     0.071 C 
HETATM    7  N   UNK N   1     168.961 156.527 153.423  0.00  0.00    -0.263 N 
ATOM      8  HN  UNK N   1     169.126 157.460 153.048  1.00  0.00     0.194 HD
HETATM    9  O   UNK N   1     169.722 155.477 153.248  0.00  0.00    -0.219 OA
HETATM   10  C   UNK N   1     169.211 154.444 153.870  0.00  0.00     0.184 A 
HETATM   11  N   UNK N   1     169.711 153.189 153.921  0.00  0.00    -0.334 N 
ATOM     12  HN  UNK N   1     170.582 152.960 153.442  1.00  0.00     0.168 HD
ENDROOT
BRANCH   3  13
HETATM   13  C   UNK N   1     166.066 154.253 155.907  0.00  0.00     0.255 C 
HETATM   14  O   UNK N   1     165.002 154.057 155.336  0.00  0.00    -0.267 OA
HETATM   15  N   UNK N   1     166.087 154.814 157.151  0.00  0.00    -0.347 N 
HETATM   16  C   UNK N   1     167.352 155.062 157.819  0.00  0.00     0.126 C 
HETATM   17  C   UNK N   1     164.838 155.183 157.811  0.00  0.00     0.137 C 
HETATM   18  C   UNK N   1     167.409 156.508 158.310  0.00  0.00     0.021 C 
HETATM   19  C   UNK N   1     166.134 156.933 159.064  0.00  0.00     0.014 C 
HETATM   20  C   UNK N   1     165.074 155.825 159.189  0.00  0.00    -0.006 C 
HETATM   21  C   UNK N   1     165.544 154.766 160.175  0.00  0.00     0.019 C 
BRANCH  20  22
HETATM   22  C   UNK N   1     163.775 156.400 159.744  0.00  0.00     0.175 C 
BRANCH  22  23
HETATM   23  O   UNK N   1     162.657 155.762 159.201  0.00  0.00    -0.400 OA
HETATM   24  H   UNK N   1     162.239 155.210 159.880  0.00  0.00     0.209 HD
ENDBRANCH  22  23
ENDBRANCH  20  22
ENDBRANCH   3  13
BRANCH   1  25
HETATM   25  C   UNK N   1     169.569 150.854 154.690  0.00  0.00     0.022 A 
HETATM   26  C   UNK N   1     169.659 149.960 153.636  0.00  0.00     0.048 A 
HETATM   27  C   UNK N   1     170.222 148.822 154.187  0.00  0.00     0.050 A 
HETATM   28  C   UNK N   1     170.525 147.565 153.452  0.00  0.00     0.076 C 
HETATM   29  O   UNK N   1     170.460 148.996 155.466  0.00  0.00    -0.319 OA
HETATM   30  C   UNK N   1     170.081 150.204 155.803  0.00  0.00     0.062 A 
HETATM   31  C   UNK N   1     170.204 150.748 157.184  0.00  0.00     0.077 C 
ENDBRANCH   1  25
TORSDOF 4
ENDMDL
MODEL 6
REMARK VINA RESULT:      -6.4      3.102      4.425
REMARK  4 active torsions:
REMARK  status: ('A' for Active; 'I' for Inactive)
REMARK    1  A    between atoms: C_4  and  C_5 
REMARK    2  A    between atoms: C_7  and  C_8 
REMARK       I    between atoms: C_8  and  N_10 
REMARK    3  A    between atoms: C_14  and  C_16 
REMARK    4  A    between atoms: C_16  and  O_17 
ROOT
HETATM    1  C   UNK N   1     165.971 155.386 154.649  0.00  0.00     0.048 A 
HETATM    2  C   UNK N   1     165.546 156.702 154.981  0.00  0.00     0.048 A 
HETATM    3  C   UNK N   1     164.851 156.934 156.187  0.00  0.00     0.051 A 
HETATM    4  C   UNK N   1     164.611 155.833 157.009  0.00  0.00     0.057 A 
HETATM    5  C   UNK N   1     163.989 155.647 158.223  0.00  0.00     0.044 A 
HETATM    6  C   UNK N   1     163.336 156.681 159.073  0.00  0.00     0.071 C 
HETATM    7  N   UNK N   1     164.063 154.334 158.545  0.00  0.00    -0.263 N 
ATOM      8  HN  UNK N   1     163.691 153.896 159.387  1.00  0.00     0.194 HD
HETATM    9  O   UNK N   1     164.701 153.729 157.576  0.00  0.00    -0.219 OA
HETATM   10  C   UNK N   1     165.037 154.594 156.652  0.00  0.00     0.184 A 
HETATM   11  N   UNK N   1     165.705 154.348 155.502  0.00  0.00    -0.334 N 
ATOM     12  HN  UNK N   1     166.006 153.400 155.273  1.00  0.00     0.168 HD
ENDROOT
BRANCH   3  13
HETATM   13  C   UNK N   1     164.391 158.289 156.551  0.00  0.00     0.255 C 
HETATM   14  O   UNK N   1     163.326 158.689 156.102  0.00  0.00    -0.267 OA
HETATM   15  N   UNK N   1     165.138 159.089 157.366  0.00  0.00    -0.347 N 
HETATM   16  C   UNK N   1     166.411 158.619 157.884  0.00  0.00     0.126 C 
HETATM   17  C   UNK N   1     164.669 160.429 157.709  0.00  0.00     0.137 C 
HETATM   18  C   UNK N   1     167.500 159.656 157.614  0.00  0.00     0.021 C 
HETATM   19  C   UNK N   1     167.077 161.084 158.010  0.00  0.00     0.014 C 
HETATM   20  C   UNK N   1     165.663 161.181 158.612  0.00  0.00    -0.006 C 
HETATM   21  C   UNK N   1     165.650 160.574 160.007  0.00  0.00     0.019 C 
BRANCH  20  22
HETATM   22  C   UNK N   1     165.254 162.642 158.761  0.00  0.00     0.175 C 
BRANCH  22  23
HETATM   23  O   UNK N   1     166.076 163.316 159.668  0.00  0.00    -0.400 OA
HETATM   24  H   UNK N   1     165.690 163.262 160.556  0.00  0.00     0.209 HD
ENDBRANCH  22  23
ENDBRANCH  20  22
ENDBRANCH   3  13
BRANCH   1  25
HETATM   25  C   UNK N   1     166.698 155.129 153.389  0.00  0.00     0.022 A 
HETATM   26  C   UNK N   1     166.145 155.084 152.119  0.00  0.00     0.048 A 
HETATM   27  C   UNK N   1     167.213 154.818 151.280  0.00  0.00     0.050 A 
HETATM   28  C   UNK N   1     167.135 154.672 149.803  0.00  0.00     0.076 C 
HETATM   29  O   UNK N   1     168.326 154.709 151.968  0.00  0.00    -0.319 OA
HETATM   30  C   UNK N   1     168.055 154.890 153.237  0.00  0.00     0.062 A 
HETATM   31  C   UNK N   1     169.085 154.837 154.312  0.00  0.00     0.077 C 
ENDBRANCH   1  25
TORSDOF 4
ENDMDL
MODEL 7
REMARK VINA RESULT:      -6.3      1.376      1.994
REMARK  4 active torsions:
REMARK  status: ('A' for Active; 'I' for Inactive)
REMARK    1  A    between atoms: C_4  and  C_5 
REMARK    2  A    between atoms: C_7  and  C_8 
REMARK       I    between atoms: C_8  and  N_10 
REMARK    3  A    between atoms: C_14  and  C_16 
REMARK    4  A    between atoms: C_16  and  O_17 
ROOT
HETATM    1  C   UNK N   1     167.917 153.809 155.272  0.00  0.00     0.048 A 
HETATM    2  C   UNK N   1     166.578 153.851 155.753  0.00  0.00     0.048 A 
HETATM    3  C   UNK N   1     166.296 154.452 156.997  0.00  0.00     0.051 A 
HETATM    4  C   UNK N   1     167.370 154.988 157.707  0.00  0.00     0.057 A 
HETATM    5  C   UNK N   1     167.507 155.635 158.915  0.00  0.00     0.044 A 
HETATM    6  C   UNK N   1     166.432 155.972 159.889  0.00  0.00     0.071 C 
HETATM    7  N   UNK N   1     168.816 155.934 159.094  0.00  0.00    -0.263 N 
ATOM      8  HN  UNK N   1     169.222 156.414 159.895  1.00  0.00     0.194 HD
HETATM    9  O   UNK N   1     169.464 155.493 158.046  0.00  0.00    -0.219 OA
HETATM   10  C   UNK N   1     168.631 154.927 157.209  0.00  0.00     0.184 A 
HETATM   11  N   UNK N   1     168.926 154.355 156.020  0.00  0.00    -0.334 N 
ATOM     12  HN  UNK N   1     169.889 154.331 155.683  1.00  0.00     0.168 HD
ENDROOT
BRANCH   3  13
HETATM   13  C   UNK N   1     164.917 154.501 157.523  0.00  0.00     0.255 C 
HETATM   14  O   UNK N   1     164.472 153.517 158.099  0.00  0.00    -0.267 OA
HETATM   15  N   UNK N   1     164.143 155.614 157.366  0.00  0.00    -0.347 N 
HETATM   16  C   UNK N   1     164.667 156.774 156.666  0.00  0.00     0.126 C 
HETATM   17  C   UNK N   1     162.779 155.640 157.887  0.00  0.00     0.137 C 
HETATM   18  C   UNK N   1     163.685 157.218 155.582  0.00  0.00     0.021 C 
HETATM   19  C   UNK N   1     162.235 157.315 156.094  0.00  0.00     0.014 C 
HETATM   20  C   UNK N   1     162.065 156.969 157.585  0.00  0.00    -0.006 C 
HETATM   21  C   UNK N   1     162.655 158.076 158.445  0.00  0.00     0.019 C 
BRANCH  20  22
HETATM   22  C   UNK N   1     160.585 156.876 157.938  0.00  0.00     0.175 C 
BRANCH  22  23
HETATM   23  O   UNK N   1     159.873 156.149 156.981  0.00  0.00    -0.400 OA
HETATM   24  H   UNK N   1     160.436 155.995 156.207  0.00  0.00     0.209 HD
ENDBRANCH  22  23
ENDBRANCH  20  22
ENDBRANCH   3  13
BRANCH   1  25
HETATM   25  C   UNK N   1     168.226 153.180 153.972  0.00  0.00     0.022 A 
HETATM   26  C   UNK N   1     168.805 151.936 153.781  0.00  0.00     0.048 A 
HETATM   27  C   UNK N   1     168.889 151.795 152.407  0.00  0.00     0.050 A 
HETATM   28  C   UNK N   1     169.445 150.615 151.693  0.00  0.00     0.076 C 
HETATM   29  O   UNK N   1     168.405 152.854 151.802  0.00  0.00    -0.319 OA
HETATM   30  C   UNK N   1     167.998 153.707 152.710  0.00  0.00     0.062 A 
HETATM   31  C   UNK N   1     167.388 155.026 152.383  0.00  0.00     0.077 C 
ENDBRANCH   1  25
TORSDOF 4
ENDMDL
MODEL 8
REMARK VINA RESULT:      -6.2     11.158     13.736
REMARK  4 active torsions:
REMARK  status: ('A' for Active; 'I' for Inactive)
REMARK    1  A    between atoms: C_4  and  C_5 
REMARK    2  A    between atoms: C_7  and  C_8 
REMARK       I    between atoms: C_8  and  N_10 
REMARK    3  A    between atoms: C_14  and  C_16 
REMARK    4  A    between atoms: C_16  and  O_17 
ROOT
HETATM    1  C   UNK N   1     159.606 145.979 161.493  0.00  0.00     0.048 A 
HETATM    2  C   UNK N   1     158.384 146.525 161.009  0.00  0.00     0.048 A 
HETATM    3  C   UNK N   1     157.626 145.815 160.053  0.00  0.00     0.051 A 
HETATM    4  C   UNK N   1     158.126 144.587 159.624  0.00  0.00     0.057 A 
HETATM    5  C   UNK N   1     157.702 143.624 158.735  0.00  0.00     0.044 A 
HETATM    6  C   UNK N   1     156.464 143.640 157.907  0.00  0.00     0.071 C 
HETATM    7  N   UNK N   1     158.610 142.620 158.725  0.00  0.00    -0.263 N 
ATOM      8  HN  UNK N   1     158.565 141.770 158.165  1.00  0.00     0.194 HD
HETATM    9  O   UNK N   1     159.558 142.942 159.568  0.00  0.00    -0.219 OA
HETATM   10  C   UNK N   1     159.296 144.103 160.115  0.00  0.00     0.184 A 
HETATM   11  N   UNK N   1     160.040 144.765 161.030  0.00  0.00    -0.334 N 
ATOM     12  HN  UNK N   1     160.915 144.365 161.371  1.00  0.00     0.168 HD
ENDROOT
BRANCH   3  13
HETATM   13  C   UNK N   1     156.360 146.364 159.528  0.00  0.00     0.255 C 
HETATM   14  O   UNK N   1     155.314 146.068 160.090  0.00  0.00    -0.267 OA
HETATM   15  N   UNK N   1     156.347 147.179 158.434  0.00  0.00    -0.347 N 
HETATM   16  C   UNK N   1     157.588 147.516 157.760  0.00  0.00     0.126 C 
HETATM   17  C   UNK N   1     155.083 147.706 157.926  0.00  0.00     0.137 C 
HETATM   18  C   UNK N   1     157.457 147.248 156.260  0.00  0.00     0.021 C 
HETATM   19  C   UNK N   1     156.163 147.832 155.661  0.00  0.00     0.014 C 
HETATM   20  C   UNK N   1     155.277 148.579 156.674  0.00  0.00    -0.006 C 
HETATM   21  C   UNK N   1     155.930 149.897 157.063  0.00  0.00     0.019 C 
BRANCH  20  22
HETATM   22  C   UNK N   1     153.931 148.921 156.044  0.00  0.00     0.175 C 
BRANCH  22  23
HETATM   23  O   UNK N   1     153.614 148.047 155.002  0.00  0.00    -0.400 OA
HETATM   24  H   UNK N   1     153.004 147.365 155.326  0.00  0.00     0.209 HD
ENDBRANCH  22  23
ENDBRANCH  20  22
ENDBRANCH   3  13
BRANCH   1  25
HETATM   25  C   UNK N   1     160.410 146.712 162.492  0.00  0.00     0.022 A 
HETATM   26  C   UNK N   1     160.128 146.829 163.843  0.00  0.00     0.048 A 
HETATM   27  C   UNK N   1     161.161 147.598 164.351  0.00  0.00     0.050 A 
HETATM   28  C   UNK N   1     161.313 148.007 165.773  0.00  0.00     0.076 C 
HETATM   29  O   UNK N   1     162.005 147.926 163.401  0.00  0.00    -0.319 OA
HETATM   30  C   UNK N   1     161.587 147.411 162.272  0.00  0.00     0.062 A 
HETATM   31  C   UNK N   1     162.304 147.581 160.977  0.00  0.00     0.077 C 
ENDBRANCH   1  25
TORSDOF 4
ENDMDL
MODEL 9
REMARK VINA RESULT:      -6.2      2.208      7.276
REMARK  4 active torsions:
REMARK  status: ('A' for Active; 'I' for Inactive)
REMARK    1  A    between atoms: C_4  and  C_5 
REMARK    2  A    between atoms: C_7  and  C_8 
REMARK       I    between atoms: C_8  and  N_10 
REMARK    3  A    between atoms: C_14  and  C_16 
REMARK    4  A    between atoms: C_16  and  O_17 
ROOT
HETATM    1  C   UNK N   1     162.365 156.346 158.159  0.00  0.00     0.048 A 
HETATM    2  C   UNK N   1     163.108 155.549 157.244  0.00  0.00     0.048 A 
HETATM    3  C   UNK N   1     164.389 155.078 157.601  0.00  0.00     0.051 A 
HETATM    4  C   UNK N   1     164.871 155.426 158.862  0.00  0.00     0.057 A 
HETATM    5  C   UNK N   1     166.031 155.175 159.561  0.00  0.00     0.044 A 
HETATM    6  C   UNK N   1     167.205 154.380 159.108  0.00  0.00     0.071 C 
HETATM    7  N   UNK N   1     165.942 155.779 160.770  0.00  0.00    -0.263 N 
ATOM      8  HN  UNK N   1     166.648 155.768 161.504  1.00  0.00     0.194 HD
HETATM    9  O   UNK N   1     164.781 156.380 160.822  0.00  0.00    -0.219 OA
HETATM   10  C   UNK N   1     164.125 156.187 159.705  0.00  0.00     0.184 A 
HETATM   11  N   UNK N   1     162.896 156.651 159.385  0.00  0.00    -0.334 N 
ATOM     12  HN  UNK N   1     162.371 157.221 160.048  1.00  0.00     0.168 HD
ENDROOT
BRANCH   3  13
HETATM   13  C   UNK N   1     165.185 154.257 156.666  0.00  0.00     0.255 C 
HETATM   14  O   UNK N   1     164.999 153.048 156.642  0.00  0.00    -0.267 OA
HETATM   15  N   UNK N   1     166.116 154.827 155.848  0.00  0.00    -0.347 N 
HETATM   16  C   UNK N   1     166.347 156.260 155.891  0.00  0.00     0.126 C 
HETATM   17  C   UNK N   1     166.898 153.997 154.936  0.00  0.00     0.137 C 
HETATM   18  C   UNK N   1     167.840 156.544 156.050  0.00  0.00     0.021 C 
HETATM   19  C   UNK N   1     168.709 155.733 155.070  0.00  0.00     0.014 C 
HETATM   20  C   UNK N   1     167.911 154.820 154.122  0.00  0.00    -0.006 C 
HETATM   21  C   UNK N   1     167.177 155.661 153.088  0.00  0.00     0.019 C 
BRANCH  20  22
HETATM   22  C   UNK N   1     168.857 153.902 153.354  0.00  0.00     0.175 C 
BRANCH  22  23
HETATM   23  O   UNK N   1     170.169 154.012 153.819  0.00  0.00    -0.400 OA
HETATM   24  H   UNK N   1     170.759 153.497 153.247  0.00  0.00     0.209 HD
ENDBRANCH  22  23
ENDBRANCH  20  22
ENDBRANCH   3  13
BRANCH   1  25
HETATM   25  C   UNK N   1     161.023 156.848 157.798  0.00  0.00     0.022 A 
HETATM   26  C   UNK N   1     159.813 156.335 158.235  0.00  0.00     0.048 A 
HETATM   27  C   UNK N   1     158.856 157.132 157.631  0.00  0.00     0.050 A 
HETATM   28  C   UNK N   1     157.385 156.984 157.788  0.00  0.00     0.076 C 
HETATM   29  O   UNK N   1     159.423 158.055 156.889  0.00  0.00    -0.319 OA
HETATM   30  C   UNK N   1     160.723 157.914 156.965  0.00  0.00     0.062 A 
HETATM   31  C   UNK N   1     161.687 158.794 156.247  0.00  0.00     0.077 C 
ENDBRANCH   1  25
TORSDOF 4
ENDMDL
