MODEL 1
REMARK VINA RESULT:      -6.2      0.000      0.000
REMARK  6 active torsions:
REMARK  status: ('A' for Active; 'I' for Inactive)
REMARK    1  A    between atoms: C_2  and  C_3 
REMARK       I    between atoms: C_3  and  N_5 
REMARK    2  A    between atoms: N_5  and  C_6 
REMARK    3  A    between atoms: N_5  and  C_20 
REMARK    4  A    between atoms: C_6  and  C_7 
REMARK    5  A    between atoms: C_7  and  N_8 
REMARK       I    between atoms: N_8  and  C_9 
REMARK    6  A    between atoms: C_9  and  C_11 
ROOT
HETATM    1  C   UNK N   1     159.109 146.568 159.212  0.00  0.00     0.146 C 
ENDROOT
BRANCH   1   2
HETATM    2  N   UNK N   1     158.215 146.546 158.064  0.00  0.00    -0.342 N 
HETATM    3  C   UNK N   1     157.756 147.751 157.574  0.00  0.00     0.250 C 
HETATM    4  O   UNK N   1     158.134 148.777 158.122  0.00  0.00    -0.268 OA
BRANCH   3   5
HETATM    5  C   UNK N   1     156.788 147.877 156.404  0.00  0.00     0.008 C 
HETATM    6  C   UNK N   1     157.289 148.002 154.992  0.00  0.00     0.054 C 
HETATM    7  C   UNK N   1     155.438 147.860 156.584  0.00  0.00    -0.069 C 
HETATM    8  C   UNK N   1     154.761 147.715 157.901  0.00  0.00     0.035 C 
HETATM    9  C   UNK N   1     154.478 147.948 155.449  0.00  0.00     0.035 C 
HETATM   10  C   UNK N   1     153.305 147.481 157.552  0.00  0.00     0.005 C 
HETATM   11  C   UNK N   1     153.109 147.922 156.106  0.00  0.00     0.005 C 
ENDBRANCH   3   5
BRANCH   2  12
HETATM   12  C   UNK N   1     157.800 145.270 157.488  0.00  0.00     0.087 A 
HETATM   13  C   UNK N   1     158.886 144.228 157.694  0.00  0.00     0.027 A 
HETATM   14  C   UNK N   1     158.659 144.810 156.315  0.00  0.00     0.027 A 
ENDBRANCH   2  12
ENDBRANCH   1   2
BRANCH   1  15
HETATM   15  C   UNK N   1     158.311 146.469 160.505  0.00  0.00     0.143 C 
BRANCH  15  16
HETATM   16  N   UNK N   1     159.016 147.109 161.592  0.00  0.00    -0.353 N 
HETATM   17  C   UNK N   1     159.895 146.447 162.387  0.00  0.00     0.285 C 
HETATM   18  O   UNK N   1     160.112 145.257 162.215  0.00  0.00    -0.264 OA
HETATM   19  H   UNK N   1     158.850 148.064 161.764  0.00  0.00     0.162 HD
BRANCH  17  20
HETATM   20  C   UNK N   1     160.602 147.168 163.460  0.00  0.00     0.174 A 
HETATM   21  N   UNK N   1     159.913 147.619 164.545  0.00  0.00    -0.348 N 
HETATM   22  C   UNK N   1     160.546 148.276 165.550  0.00  0.00     0.092 A 
ATOM     23  HN  UNK N   1     158.906 147.459 164.603  1.00  0.00     0.167 HD
HETATM   24  C   UNK N   1     161.919 148.495 165.482  0.00  0.00     0.041 A 
HETATM   25  C   UNK N   1     162.611 148.028 164.366  0.00  0.00     0.008 A 
HETATM   26  C   UNK N   1     164.079 148.236 164.262  0.00  0.00     0.068 C 
HETATM   27  N   UNK N   1     161.945 147.376 163.378  0.00  0.00    -0.342 N 
ATOM     28  HN  UNK N   1     162.458 147.038 162.563  1.00  0.00     0.167 HD
ENDBRANCH  17  20
ENDBRANCH  15  16
ENDBRANCH   1  15
TORSDOF 6
ENDMDL
MODEL 2
REMARK VINA RESULT:      -6.1     11.853     14.029
REMARK  6 active torsions:
REMARK  status: ('A' for Active; 'I' for Inactive)
REMARK    1  A    between atoms: C_2  and  C_3 
REMARK       I    between atoms: C_3  and  N_5 
REMARK    2  A    between atoms: N_5  and  C_6 
REMARK    3  A    between atoms: N_5  and  C_20 
REMARK    4  A    between atoms: C_6  and  C_7 
REMARK    5  A    between atoms: C_7  and  N_8 
REMARK       I    between atoms: N_8  and  C_9 
REMARK    6  A    between atoms: C_9  and  C_11 
ROOT
HETATM    1  C   UNK N   1     165.585 155.655 154.598  0.00  0.00     0.146 C 
ENDROOT
BRANCH   1   2
HETATM    2  N   UNK N   1     166.587 156.487 155.246  0.00  0.00    -0.342 N 
HETATM    3  C   UNK N   1     166.530 156.624 156.616  0.00  0.00     0.250 C 
HETATM    4  O   UNK N   1     165.647 156.029 157.219  0.00  0.00    -0.268 OA
BRANCH   3   5
HETATM    5  C   UNK N   1     167.490 157.491 157.423  0.00  0.00     0.008 C 
HETATM    6  C   UNK N   1     168.694 156.896 158.098  0.00  0.00     0.054 C 
HETATM    7  C   UNK N   1     167.311 158.835 157.547  0.00  0.00    -0.069 C 
HETATM    8  C   UNK N   1     166.197 159.602 156.927  0.00  0.00     0.035 C 
HETATM    9  C   UNK N   1     168.257 159.703 158.302  0.00  0.00     0.035 C 
HETATM   10  C   UNK N   1     166.585 161.054 157.121  0.00  0.00     0.005 C 
HETATM   11  C   UNK N   1     167.659 161.095 158.202  0.00  0.00     0.005 C 
ENDBRANCH   3   5
BRANCH   2  12
HETATM   12  C   UNK N   1     167.592 157.177 154.441  0.00  0.00     0.087 A 
HETATM   13  C   UNK N   1     167.847 156.410 153.155  0.00  0.00     0.027 A 
HETATM   14  C   UNK N   1     168.885 156.390 154.256  0.00  0.00     0.027 A 
ENDBRANCH   2  12
ENDBRANCH   1   2
BRANCH   1  15
HETATM   15  C   UNK N   1     164.337 156.472 154.293  0.00  0.00     0.143 C 
BRANCH  15  16
HETATM   16  N   UNK N   1     163.333 156.274 155.314  0.00  0.00    -0.353 N 
HETATM   17  C   UNK N   1     162.694 157.306 155.924  0.00  0.00     0.285 C 
HETATM   18  O   UNK N   1     162.966 158.462 155.634  0.00  0.00    -0.264 OA
HETATM   19  H   UNK N   1     163.103 155.355 155.578  0.00  0.00     0.162 HD
BRANCH  17  20
HETATM   20  C   UNK N   1     161.659 157.033 156.936  0.00  0.00     0.174 A 
HETATM   21  N   UNK N   1     160.403 157.537 156.778  0.00  0.00    -0.348 N 
HETATM   22  C   UNK N   1     159.432 157.290 157.693  0.00  0.00     0.092 A 
ATOM     23  HN  UNK N   1     160.191 158.109 155.959  1.00  0.00     0.167 HD
HETATM   24  C   UNK N   1     159.711 156.507 158.810  0.00  0.00     0.041 A 
HETATM   25  C   UNK N   1     161.000 155.998 158.959  0.00  0.00     0.008 A 
HETATM   26  C   UNK N   1     161.333 155.153 160.135  0.00  0.00     0.068 C 
HETATM   27  N   UNK N   1     161.948 156.269 158.024  0.00  0.00    -0.342 N 
ATOM     28  HN  UNK N   1     162.890 155.893 158.140  1.00  0.00     0.167 HD
ENDBRANCH  17  20
ENDBRANCH  15  16
ENDBRANCH   1  15
TORSDOF 6
ENDMDL
MODEL 3
REMARK VINA RESULT:      -6.1      1.774      3.234
REMARK  6 active torsions:
REMARK  status: ('A' for Active; 'I' for Inactive)
REMARK    1  A    between atoms: C_2  and  C_3 
REMARK       I    between atoms: C_3  and  N_5 
REMARK    2  A    between atoms: N_5  and  C_6 
REMARK    3  A    between atoms: N_5  and  C_20 
REMARK    4  A    between atoms: C_6  and  C_7 
REMARK    5  A    between atoms: C_7  and  N_8 
REMARK       I    between atoms: N_8  and  C_9 
REMARK    6  A    between atoms: C_9  and  C_11 
ROOT
HETATM    1  C   UNK N   1     155.516 146.660 160.629  0.00  0.00     0.146 C 
ENDROOT
BRANCH   1   2
HETATM    2  N   UNK N   1     155.486 147.087 159.238  0.00  0.00    -0.342 N 
HETATM    3  C   UNK N   1     156.508 147.891 158.781  0.00  0.00     0.250 C 
HETATM    4  O   UNK N   1     157.396 148.195 159.567  0.00  0.00    -0.268 OA
BRANCH   3   5
HETATM    5  C   UNK N   1     156.586 148.441 157.363  0.00  0.00     0.008 C 
HETATM    6  C   UNK N   1     156.028 149.795 157.023  0.00  0.00     0.054 C 
HETATM    7  C   UNK N   1     157.179 147.744 156.354  0.00  0.00    -0.069 C 
HETATM    8  C   UNK N   1     157.810 146.405 156.507  0.00  0.00     0.035 C 
HETATM    9  C   UNK N   1     157.295 148.281 154.969  0.00  0.00     0.035 C 
HETATM   10  C   UNK N   1     158.550 146.187 155.202  0.00  0.00     0.005 C 
HETATM   11  C   UNK N   1     157.986 147.177 154.190  0.00  0.00     0.005 C 
ENDBRANCH   3   5
BRANCH   2  12
HETATM   12  C   UNK N   1     154.372 146.691 158.379  0.00  0.00     0.087 A 
HETATM   13  C   UNK N   1     153.622 145.526 159.001  0.00  0.00     0.027 A 
HETATM   14  C   UNK N   1     154.506 145.288 157.797  0.00  0.00     0.027 A 
ENDBRANCH   2  12
ENDBRANCH   1   2
BRANCH   1  15
HETATM   15  C   UNK N   1     156.580 145.589 160.829  0.00  0.00     0.143 C 
BRANCH  15  16
HETATM   16  N   UNK N   1     157.649 146.079 161.669  0.00  0.00    -0.353 N 
HETATM   17  C   UNK N   1     158.959 145.840 161.404  0.00  0.00     0.285 C 
HETATM   18  O   UNK N   1     159.283 145.173 160.432  0.00  0.00    -0.264 OA
HETATM   19  H   UNK N   1     157.418 146.608 162.467  0.00  0.00     0.162 HD
BRANCH  17  20
HETATM   20  C   UNK N   1     160.000 146.395 162.286  0.00  0.00     0.174 A 
HETATM   21  N   UNK N   1     161.309 146.340 161.911  0.00  0.00    -0.348 N 
HETATM   22  C   UNK N   1     162.284 146.854 162.704  0.00  0.00     0.092 A 
ATOM     23  HN  UNK N   1     161.560 145.906 161.022  1.00  0.00     0.167 HD
HETATM   24  C   UNK N   1     161.951 147.452 163.917  0.00  0.00     0.041 A 
HETATM   25  C   UNK N   1     160.608 147.502 164.287  0.00  0.00     0.008 A 
HETATM   26  C   UNK N   1     160.215 148.138 165.571  0.00  0.00     0.068 C 
HETATM   27  N   UNK N   1     159.660 146.974 163.470  0.00  0.00    -0.342 N 
ATOM     28  HN  UNK N   1     158.678 147.012 163.747  1.00  0.00     0.167 HD
ENDBRANCH  17  20
ENDBRANCH  15  16
ENDBRANCH   1  15
TORSDOF 6
ENDMDL
MODEL 4
REMARK VINA RESULT:      -6.1      1.620      2.316
REMARK  6 active torsions:
REMARK  status: ('A' for Active; 'I' for Inactive)
REMARK    1  A    between atoms: C_2  and  C_3 
REMARK       I    between atoms: C_3  and  N_5 
REMARK    2  A    between atoms: N_5  and  C_6 
REMARK    3  A    between atoms: N_5  and  C_20 
REMARK    4  A    between atoms: C_6  and  C_7 
REMARK    5  A    between atoms: C_7  and  N_8 
REMARK       I    between atoms: N_8  and  C_9 
REMARK    6  A    between atoms: C_9  and  C_11 
ROOT
HETATM    1  C   UNK N   1     158.816 145.163 157.948  0.00  0.00     0.146 C 
ENDROOT
BRANCH   1   2
HETATM    2  N   UNK N   1     157.678 145.989 157.575  0.00  0.00    -0.342 N 
HETATM    3  C   UNK N   1     157.707 147.326 157.911  0.00  0.00     0.250 C 
HETATM    4  O   UNK N   1     158.694 147.751 158.496  0.00  0.00    -0.268 OA
BRANCH   3   5
HETATM    5  C   UNK N   1     156.572 148.299 157.618  0.00  0.00     0.008 C 
HETATM    6  C   UNK N   1     156.566 149.131 156.366  0.00  0.00     0.054 C 
HETATM    7  C   UNK N   1     155.512 148.441 158.461  0.00  0.00    -0.069 C 
HETATM    8  C   UNK N   1     155.331 147.683 159.729  0.00  0.00     0.035 C 
HETATM    9  C   UNK N   1     154.377 149.362 158.173  0.00  0.00     0.035 C 
HETATM   10  C   UNK N   1     153.906 147.985 160.148  0.00  0.00     0.005 C 
HETATM   11  C   UNK N   1     153.457 149.218 159.373  0.00  0.00     0.005 C 
ENDBRANCH   3   5
BRANCH   2  12
HETATM   12  C   UNK N   1     156.532 145.387 156.898  0.00  0.00     0.087 A 
HETATM   13  C   UNK N   1     156.971 144.157 156.123  0.00  0.00     0.027 A 
HETATM   14  C   UNK N   1     156.622 145.425 155.376  0.00  0.00     0.027 A 
ENDBRANCH   2  12
ENDBRANCH   1   2
BRANCH   1  15
HETATM   15  C   UNK N   1     158.625 144.602 159.350  0.00  0.00     0.143 C 
BRANCH  15  16
HETATM   16  N   UNK N   1     159.562 145.199 160.274  0.00  0.00    -0.353 N 
HETATM   17  C   UNK N   1     159.169 145.945 161.339  0.00  0.00     0.285 C 
HETATM   18  O   UNK N   1     157.983 146.153 161.546  0.00  0.00    -0.264 OA
HETATM   19  H   UNK N   1     160.525 145.061 160.124  0.00  0.00     0.162 HD
BRANCH  17  20
HETATM   20  C   UNK N   1     160.177 146.500 162.258  0.00  0.00     0.174 A 
HETATM   21  N   UNK N   1     161.495 146.481 161.915  0.00  0.00    -0.348 N 
HETATM   22  C   UNK N   1     162.440 146.996 162.743  0.00  0.00     0.092 A 
ATOM     23  HN  UNK N   1     161.776 146.073 161.023  1.00  0.00     0.167 HD
HETATM   24  C   UNK N   1     162.066 147.559 163.961  0.00  0.00     0.041 A 
HETATM   25  C   UNK N   1     160.713 147.573 164.298  0.00  0.00     0.008 A 
HETATM   26  C   UNK N   1     160.276 148.172 165.586  0.00  0.00     0.068 C 
HETATM   27  N   UNK N   1     159.796 147.045 163.446  0.00  0.00    -0.342 N 
ATOM     28  HN  UNK N   1     158.807 147.057 163.701  1.00  0.00     0.167 HD
ENDBRANCH  17  20
ENDBRANCH  15  16
ENDBRANCH   1  15
TORSDOF 6
ENDMDL
MODEL 5
REMARK VINA RESULT:      -6.0     11.825     13.979
REMARK  6 active torsions:
REMARK  status: ('A' for Active; 'I' for Inactive)
REMARK    1  A    between atoms: C_2  and  C_3 
REMARK       I    between atoms: C_3  and  N_5 
REMARK    2  A    between atoms: N_5  and  C_6 
REMARK    3  A    between atoms: N_5  and  C_20 
REMARK    4  A    between atoms: C_6  and  C_7 
REMARK    5  A    between atoms: C_7  and  N_8 
REMARK       I    between atoms: N_8  and  C_9 
REMARK    6  A    between atoms: C_9  and  C_11 
ROOT
HETATM    1  C   UNK N   1     166.843 153.973 154.731  0.00  0.00     0.146 C 
ENDROOT
BRANCH   1   2
HETATM    2  N   UNK N   1     166.429 155.237 155.323  0.00  0.00    -0.342 N 
HETATM    3  C   UNK N   1     167.162 156.365 155.025  0.00  0.00     0.250 C 
HETATM    4  O   UNK N   1     168.117 156.249 154.269  0.00  0.00    -0.268 OA
BRANCH   3   5
HETATM    5  C   UNK N   1     166.867 157.745 155.600  0.00  0.00     0.008 C 
HETATM    6  C   UNK N   1     165.965 158.710 154.882  0.00  0.00     0.054 C 
HETATM    7  C   UNK N   1     167.387 158.153 156.791  0.00  0.00    -0.069 C 
HETATM    8  C   UNK N   1     168.274 157.327 157.655  0.00  0.00     0.035 C 
HETATM    9  C   UNK N   1     167.082 159.485 157.384  0.00  0.00     0.035 C 
HETATM   10  C   UNK N   1     168.352 158.097 158.958  0.00  0.00     0.005 C 
HETATM   11  C   UNK N   1     167.883 159.519 158.673  0.00  0.00     0.005 C 
ENDBRANCH   3   5
BRANCH   2  12
HETATM   12  C   UNK N   1     165.287 155.275 156.233  0.00  0.00     0.087 A 
HETATM   13  C   UNK N   1     164.333 154.135 155.921  0.00  0.00     0.027 A 
HETATM   14  C   UNK N   1     163.954 155.551 155.544  0.00  0.00     0.027 A 
ENDBRANCH   2  12
ENDBRANCH   1   2
BRANCH   1  15
HETATM   15  C   UNK N   1     167.776 153.229 155.676  0.00  0.00     0.143 C 
BRANCH  15  16
HETATM   16  N   UNK N   1     168.452 152.153 154.988  0.00  0.00    -0.353 N 
HETATM   17  C   UNK N   1     168.018 150.867 155.030  0.00  0.00     0.285 C 
HETATM   18  O   UNK N   1     167.028 150.569 155.682  0.00  0.00    -0.264 OA
HETATM   19  H   UNK N   1     169.260 152.361 154.467  0.00  0.00     0.162 HD
BRANCH  17  20
HETATM   20  C   UNK N   1     168.738 149.824 154.280  0.00  0.00     0.174 A 
HETATM   21  N   UNK N   1     169.725 149.107 154.887  0.00  0.00    -0.348 N 
HETATM   22  C   UNK N   1     170.394 148.135 154.217  0.00  0.00     0.092 A 
ATOM     23  HN  UNK N   1     169.963 149.305 155.860  1.00  0.00     0.167 HD
HETATM   24  C   UNK N   1     170.072 147.854 152.892  0.00  0.00     0.041 A 
HETATM   25  C   UNK N   1     169.059 148.594 152.284  0.00  0.00     0.008 A 
HETATM   26  C   UNK N   1     168.684 148.319 150.873  0.00  0.00     0.068 C 
HETATM   27  N   UNK N   1     168.413 149.563 152.984  0.00  0.00    -0.342 N 
ATOM     28  HN  UNK N   1     167.674 150.102 152.532  1.00  0.00     0.167 HD
ENDBRANCH  17  20
ENDBRANCH  15  16
ENDBRANCH   1  15
TORSDOF 6
ENDMDL
MODEL 6
REMARK VINA RESULT:      -6.0      2.164      3.479
REMARK  6 active torsions:
REMARK  status: ('A' for Active; 'I' for Inactive)
REMARK    1  A    between atoms: C_2  and  C_3 
REMARK       I    between atoms: C_3  and  N_5 
REMARK    2  A    between atoms: N_5  and  C_6 
REMARK    3  A    between atoms: N_5  and  C_20 
REMARK    4  A    between atoms: C_6  and  C_7 
REMARK    5  A    between atoms: C_7  and  N_8 
REMARK       I    between atoms: N_8  and  C_9 
REMARK    6  A    between atoms: C_9  and  C_11 
ROOT
HETATM    1  C   UNK N   1     158.192 146.433 156.292  0.00  0.00     0.146 C 
ENDROOT
BRANCH   1   2
HETATM    2  N   UNK N   1     156.925 147.074 156.607  0.00  0.00    -0.342 N 
HETATM    3  C   UNK N   1     156.937 148.156 157.461  0.00  0.00     0.250 C 
HETATM    4  O   UNK N   1     158.016 148.530 157.901  0.00  0.00    -0.268 OA
BRANCH   3   5
HETATM    5  C   UNK N   1     155.684 148.900 157.907  0.00  0.00     0.008 C 
HETATM    6  C   UNK N   1     155.206 150.124 157.176  0.00  0.00     0.054 C 
HETATM    7  C   UNK N   1     154.938 148.480 158.965  0.00  0.00    -0.069 C 
HETATM    8  C   UNK N   1     155.238 147.276 159.788  0.00  0.00     0.035 C 
HETATM    9  C   UNK N   1     153.692 149.174 159.393  0.00  0.00     0.035 C 
HETATM   10  C   UNK N   1     153.998 147.083 160.638  0.00  0.00     0.005 C 
HETATM   11  C   UNK N   1     153.217 148.392 160.604  0.00  0.00     0.005 C 
ENDBRANCH   3   5
BRANCH   2  12
HETATM   12  C   UNK N   1     155.682 146.543 156.051  0.00  0.00     0.087 A 
HETATM   13  C   UNK N   1     155.944 145.919 154.692  0.00  0.00     0.027 A 
HETATM   14  C   UNK N   1     155.222 147.247 154.779  0.00  0.00     0.027 A 
ENDBRANCH   2  12
ENDBRANCH   1   2
BRANCH   1  15
HETATM   15  C   UNK N   1     158.420 145.236 157.205  0.00  0.00     0.143 C 
BRANCH  15  16
HETATM   16  N   UNK N   1     159.069 145.643 158.431  0.00  0.00    -0.353 N 
HETATM   17  C   UNK N   1     158.650 145.230 159.655  0.00  0.00     0.285 C 
HETATM   18  O   UNK N   1     157.678 144.498 159.762  0.00  0.00    -0.264 OA
HETATM   19  H   UNK N   1     159.847 146.244 158.376  0.00  0.00     0.162 HD
BRANCH  17  20
HETATM   20  C   UNK N   1     159.377 145.658 160.863  0.00  0.00     0.174 A 
HETATM   21  N   UNK N   1     160.250 146.701 160.797  0.00  0.00    -0.348 N 
HETATM   22  C   UNK N   1     160.922 147.119 161.900  0.00  0.00     0.092 A 
ATOM     23  HN  UNK N   1     160.401 147.176 159.906  1.00  0.00     0.167 HD
HETATM   24  C   UNK N   1     160.720 146.482 163.121  0.00  0.00     0.041 A 
HETATM   25  C   UNK N   1     159.823 145.417 163.174  0.00  0.00     0.008 A 
HETATM   26  C   UNK N   1     159.576 144.716 164.461  0.00  0.00     0.068 C 
HETATM   27  N   UNK N   1     159.170 145.023 162.049  0.00  0.00    -0.342 N 
ATOM     28  HN  UNK N   1     158.516 144.241 162.094  1.00  0.00     0.167 HD
ENDBRANCH  17  20
ENDBRANCH  15  16
ENDBRANCH   1  15
TORSDOF 6
ENDMDL
MODEL 7
REMARK VINA RESULT:      -6.0     10.857     12.279
REMARK  6 active torsions:
REMARK  status: ('A' for Active; 'I' for Inactive)
REMARK    1  A    between atoms: C_2  and  C_3 
REMARK       I    between atoms: C_3  and  N_5 
REMARK    2  A    between atoms: N_5  and  C_6 
REMARK    3  A    between atoms: N_5  and  C_20 
REMARK    4  A    between atoms: C_6  and  C_7 
REMARK    5  A    between atoms: C_7  and  N_8 
REMARK       I    between atoms: N_8  and  C_9 
REMARK    6  A    between atoms: C_9  and  C_11 
ROOT
HETATM    1  C   UNK N   1     158.216 159.781 157.118  0.00  0.00     0.146 C 
ENDROOT
BRANCH   1   2
HETATM    2  N   UNK N   1     157.056 159.017 156.682  0.00  0.00    -0.342 N 
HETATM    3  C   UNK N   1     157.132 157.641 156.717  0.00  0.00     0.250 C 
HETATM    4  O   UNK N   1     158.167 157.132 157.125  0.00  0.00    -0.268 OA
BRANCH   3   5
HETATM    5  C   UNK N   1     156.011 156.717 156.257  0.00  0.00     0.008 C 
HETATM    6  C   UNK N   1     155.936 156.235 154.835  0.00  0.00     0.054 C 
HETATM    7  C   UNK N   1     155.048 156.276 157.113  0.00  0.00    -0.069 C 
HETATM    8  C   UNK N   1     154.976 156.622 158.558  0.00  0.00     0.035 C 
HETATM    9  C   UNK N   1     153.965 155.345 156.689  0.00  0.00     0.035 C 
HETATM   10  C   UNK N   1     153.921 155.689 159.117  0.00  0.00     0.005 C 
HETATM   11  C   UNK N   1     153.122 155.149 157.937  0.00  0.00     0.005 C 
ENDBRANCH   3   5
BRANCH   2  12
HETATM   12  C   UNK N   1     155.870 159.713 156.189  0.00  0.00     0.087 A 
HETATM   13  C   UNK N   1     155.806 161.113 156.774  0.00  0.00     0.027 A 
HETATM   14  C   UNK N   1     154.853 160.050 157.275  0.00  0.00     0.027 A 
ENDBRANCH   2  12
ENDBRANCH   1   2
BRANCH   1  15
HETATM   15  C   UNK N   1     159.136 160.062 155.939  0.00  0.00     0.143 C 
BRANCH  15  16
HETATM   16  N   UNK N   1     160.116 159.010 155.790  0.00  0.00    -0.353 N 
HETATM   17  C   UNK N   1     161.430 159.185 156.083  0.00  0.00     0.285 C 
HETATM   18  O   UNK N   1     161.839 160.268 156.475  0.00  0.00    -0.264 OA
HETATM   19  H   UNK N   1     159.818 158.131 155.463  0.00  0.00     0.162 HD
BRANCH  17  20
HETATM   20  C   UNK N   1     162.371 158.061 155.938  0.00  0.00     0.174 A 
HETATM   21  N   UNK N   1     161.951 156.787 156.177  0.00  0.00    -0.348 N 
HETATM   22  C   UNK N   1     162.799 155.735 156.039  0.00  0.00     0.092 A 
ATOM     23  HN  UNK N   1     160.986 156.622 156.464  1.00  0.00     0.167 HD
HETATM   24  C   UNK N   1     164.116 155.950 155.644  0.00  0.00     0.041 A 
HETATM   25  C   UNK N   1     164.532 157.259 155.402  0.00  0.00     0.008 A 
HETATM   26  C   UNK N   1     165.929 157.527 154.972  0.00  0.00     0.068 C 
HETATM   27  N   UNK N   1     163.657 158.287 155.553  0.00  0.00    -0.342 N 
ATOM     28  HN  UNK N   1     163.969 159.243 155.376  1.00  0.00     0.167 HD
ENDBRANCH  17  20
ENDBRANCH  15  16
ENDBRANCH   1  15
TORSDOF 6
ENDMDL
MODEL 8
REMARK VINA RESULT:      -5.9      1.885      2.844
REMARK  6 active torsions:
REMARK  status: ('A' for Active; 'I' for Inactive)
REMARK    1  A    between atoms: C_2  and  C_3 
REMARK       I    between atoms: C_3  and  N_5 
REMARK    2  A    between atoms: N_5  and  C_6 
REMARK    3  A    between atoms: N_5  and  C_20 
REMARK    4  A    between atoms: C_6  and  C_7 
REMARK    5  A    between atoms: C_7  and  N_8 
REMARK       I    between atoms: N_8  and  C_9 
REMARK    6  A    between atoms: C_9  and  C_11 
ROOT
HETATM    1  C   UNK N   1     158.633 144.846 160.638  0.00  0.00     0.146 C 
ENDROOT
BRANCH   1   2
HETATM    2  N   UNK N   1     157.841 145.612 159.688  0.00  0.00    -0.342 N 
HETATM    3  C   UNK N   1     158.427 146.704 159.084  0.00  0.00     0.250 C 
HETATM    4  O   UNK N   1     159.588 146.966 159.369  0.00  0.00    -0.268 OA
BRANCH   3   5
HETATM    5  C   UNK N   1     157.707 147.616 158.098  0.00  0.00     0.008 C 
HETATM    6  C   UNK N   1     156.964 148.836 158.568  0.00  0.00     0.054 C 
HETATM    7  C   UNK N   1     157.723 147.379 156.757  0.00  0.00    -0.069 C 
HETATM    8  C   UNK N   1     158.428 146.242 156.106  0.00  0.00     0.035 C 
HETATM    9  C   UNK N   1     157.054 148.279 155.777  0.00  0.00     0.035 C 
HETATM   10  C   UNK N   1     158.381 146.566 154.627  0.00  0.00     0.005 C 
HETATM   11  C   UNK N   1     157.302 147.625 154.429  0.00  0.00     0.005 C 
ENDBRANCH   3   5
BRANCH   2  12
HETATM   12  C   UNK N   1     156.454 145.236 159.426  0.00  0.00     0.087 A 
HETATM   13  C   UNK N   1     156.256 143.753 159.691  0.00  0.00     0.027 A 
HETATM   14  C   UNK N   1     156.285 144.260 158.266  0.00  0.00     0.027 A 
ENDBRANCH   2  12
ENDBRANCH   1   2
BRANCH   1  15
HETATM   15  C   UNK N   1     158.317 145.283 162.062  0.00  0.00     0.143 C 
BRANCH  15  16
HETATM   16  N   UNK N   1     159.316 146.207 162.549  0.00  0.00    -0.353 N 
HETATM   17  C   UNK N   1     160.317 145.830 163.387  0.00  0.00     0.285 C 
HETATM   18  O   UNK N   1     160.395 144.675 163.778  0.00  0.00    -0.264 OA
HETATM   19  H   UNK N   1     159.270 147.147 162.261  0.00  0.00     0.162 HD
BRANCH  17  20
HETATM   20  C   UNK N   1     161.321 146.817 163.821  0.00  0.00     0.174 A 
HETATM   21  N   UNK N   1     162.580 146.780 163.302  0.00  0.00    -0.348 N 
HETATM   22  C   UNK N   1     163.518 147.685 163.681  0.00  0.00     0.092 A 
ATOM     23  HN  UNK N   1     162.821 146.061 162.619  1.00  0.00     0.167 HD
HETATM   24  C   UNK N   1     163.197 148.673 164.609  0.00  0.00     0.041 A 
HETATM   25  C   UNK N   1     161.905 148.699 165.131  0.00  0.00     0.008 A 
HETATM   26  C   UNK N   1     161.524 149.742 166.119  0.00  0.00     0.068 C 
HETATM   27  N   UNK N   1     160.993 147.775 164.731  0.00  0.00    -0.342 N 
ATOM     28  HN  UNK N   1     160.049 147.799 165.119  1.00  0.00     0.167 HD
ENDBRANCH  17  20
ENDBRANCH  15  16
ENDBRANCH   1  15
TORSDOF 6
ENDMDL
MODEL 9
REMARK VINA RESULT:      -5.8     12.558     14.689
REMARK  6 active torsions:
REMARK  status: ('A' for Active; 'I' for Inactive)
REMARK    1  A    between atoms: C_2  and  C_3 
REMARK       I    between atoms: C_3  and  N_5 
REMARK    2  A    between atoms: N_5  and  C_6 
REMARK    3  A    between atoms: N_5  and  C_20 
REMARK    4  A    between atoms: C_6  and  C_7 
REMARK    5  A    between atoms: C_7  and  N_8 
REMARK       I    between atoms: N_8  and  C_9 
REMARK    6  A    between atoms: C_9  and  C_11 
ROOT
HETATM    1  C   UNK N   1     166.430 154.782 155.079  0.00  0.00     0.146 C 
ENDROOT
BRANCH   1   2
HETATM    2  N   UNK N   1     167.201 155.887 155.629  0.00  0.00    -0.342 N 
HETATM    3  C   UNK N   1     166.824 156.397 156.853  0.00  0.00     0.250 C 
HETATM    4  O   UNK N   1     165.867 155.887 157.419  0.00  0.00    -0.268 OA
BRANCH   3   5
HETATM    5  C   UNK N   1     167.516 157.574 157.531  0.00  0.00     0.008 C 
HETATM    6  C   UNK N   1     168.706 157.365 158.424  0.00  0.00     0.054 C 
HETATM    7  C   UNK N   1     167.101 158.857 157.341  0.00  0.00    -0.069 C 
HETATM    8  C   UNK N   1     165.962 159.259 156.471  0.00  0.00     0.035 C 
HETATM    9  C   UNK N   1     167.785 160.021 157.968  0.00  0.00     0.035 C 
HETATM   10  C   UNK N   1     166.075 160.767 156.377  0.00  0.00     0.005 C 
HETATM   11  C   UNK N   1     166.982 161.226 157.512  0.00  0.00     0.005 C 
ENDBRANCH   3   5
BRANCH   2  12
HETATM   12  C   UNK N   1     168.317 156.446 154.869  0.00  0.00     0.087 A 
HETATM   13  C   UNK N   1     167.801 157.426 153.830  0.00  0.00     0.027 A 
HETATM   14  C   UNK N   1     168.310 156.070 153.391  0.00  0.00     0.027 A 
ENDBRANCH   2  12
ENDBRANCH   1   2
BRANCH   1  15
HETATM   15  C   UNK N   1     166.907 153.461 155.666  0.00  0.00     0.143 C 
BRANCH  15  16
HETATM   16  N   UNK N   1     167.794 152.783 154.750  0.00  0.00    -0.353 N 
HETATM   17  C   UNK N   1     168.007 151.442 154.790  0.00  0.00     0.285 C 
HETATM   18  O   UNK N   1     167.453 150.753 155.634  0.00  0.00    -0.264 OA
HETATM   19  H   UNK N   1     168.265 153.315 154.068  0.00  0.00     0.162 HD
BRANCH  17  20
HETATM   20  C   UNK N   1     168.902 150.810 153.806  0.00  0.00     0.174 A 
HETATM   21  N   UNK N   1     170.232 151.107 153.808  0.00  0.00    -0.348 N 
HETATM   22  C   UNK N   1     171.077 150.529 152.916  0.00  0.00     0.092 A 
ATOM     23  HN  UNK N   1     170.597 151.773 154.489  1.00  0.00     0.167 HD
HETATM   24  C   UNK N   1     170.588 149.615 151.986  0.00  0.00     0.041 A 
HETATM   25  C   UNK N   1     169.226 149.320 151.997  0.00  0.00     0.008 A 
HETATM   26  C   UNK N   1     168.669 148.345 151.024  0.00  0.00     0.068 C 
HETATM   27  N   UNK N   1     168.409 149.921 152.901  0.00  0.00    -0.342 N 
ATOM     28  HN  UNK N   1     167.412 149.702 152.903  1.00  0.00     0.167 HD
ENDBRANCH  17  20
ENDBRANCH  15  16
ENDBRANCH   1  15
TORSDOF 6
ENDMDL
