MODEL 1
REMARK VINA RESULT:      -6.4      0.000      0.000
REMARK  7 active torsions:
REMARK  status: ('A' for Active; 'I' for Inactive)
REMARK    1  A    between atoms: O_2  and  C_3 
REMARK    2  A    between atoms: C_5  and  C_3 
REMARK    3  A    between atoms: C_7  and  C_8 
REMARK       I    between atoms: N_15  and  C_16 
REMARK    4  A    between atoms: C_16  and  C_18 
REMARK    5  A    between atoms: C_18  and  S_19 
REMARK    6  A    between atoms: S_19  and  C_20 
REMARK    7  A    between atoms: C_20  and  C_21 
ROOT
HETATM    1  C   UNK N   1     168.594 156.736 154.817  0.00  0.00     0.104 C 
HETATM    2  C   UNK N   1     167.124 156.828 155.243  0.00  0.00     0.027 C 
HETATM    3  C   UNK N   1     167.011 157.156 156.747  0.00  0.00     0.037 C 
HETATM    4  C   UNK N   1     168.105 156.483 157.592  0.00  0.00     0.135 C 
HETATM    5  N   UNK N   1     168.639 155.359 156.858  0.00  0.00    -0.350 N 
HETATM    6  C   UNK N   1     168.379 154.083 157.259  0.00  0.00     0.229 C 
HETATM    7  O   UNK N   1     167.734 153.887 158.282  0.00  0.00    -0.273 OA
HETATM    8  C   UNK N   1     169.325 155.628 155.606  0.00  0.00     0.140 C 
ENDROOT
BRANCH   6   9
HETATM    9  C   UNK N   1     168.865 152.909 156.445  0.00  0.00     0.177 C 
BRANCH   9  10
HETATM   10  S   UNK N   1     167.744 152.449 155.074  0.00  0.00    -0.154 SA
BRANCH  10  11
HETATM   11  C   UNK N   1     168.149 150.678 155.197  0.00  0.00     0.131 C 
BRANCH  11  12
HETATM   12  C   UNK N   1     168.554 150.140 153.872  0.00  0.00     0.018 A 
HETATM   13  C   UNK N   1     168.576 148.762 153.642  0.00  0.00     0.026 A 
HETATM   14  C   UNK N   1     168.956 148.288 152.386  0.00  0.00     0.003 A 
HETATM   15  C   UNK N   1     169.301 149.190 151.379  0.00  0.00     0.017 A 
HETATM   16  C   UNK N   1     169.266 150.560 151.647  0.00  0.00     0.088 A 
HETATM   17  N   UNK N   1     168.900 151.003 152.880  0.00  0.00    -0.369 N 
ATOM     18  HN  UNK N   1     168.885 152.007 153.064  1.00  0.00     0.165 HD
ENDBRANCH  11  12
ENDBRANCH  10  11
ENDBRANCH   9  10
ENDBRANCH   6   9
BRANCH   3  19
HETATM   19  C   UNK N   1     166.972 158.630 156.991  0.00  0.00    -0.052 A 
HETATM   20  C   UNK N   1     167.767 159.178 158.003  0.00  0.00     0.007 A 
HETATM   21  C   UNK N   1     167.740 160.553 158.251  0.00  0.00     0.001 A 
HETATM   22  C   UNK N   1     166.909 161.385 157.493  0.00  0.00     0.000 A 
HETATM   23  C   UNK N   1     166.111 160.841 156.482  0.00  0.00     0.001 A 
HETATM   24  C   UNK N   1     166.144 159.469 156.226  0.00  0.00     0.007 A 
ENDBRANCH   3  19
BRANCH   1  25
HETATM   25  C   UNK N   1     168.716 156.567 153.328  0.00  0.00     0.264 C 
HETATM   26  O   UNK N   1     168.967 157.528 152.613  0.00  0.00    -0.265 OA
BRANCH  25  27
HETATM   27  O   UNK N   1     168.543 155.335 152.791  0.00  0.00    -0.326 OA
HETATM   28  C   UNK N   1     167.377 154.963 152.163  0.00  0.00     0.213 C 
ENDBRANCH  25  27
ENDBRANCH   1  25
TORSDOF 7
ENDMDL
MODEL 2
REMARK VINA RESULT:      -6.3      2.125      3.821
REMARK  7 active torsions:
REMARK  status: ('A' for Active; 'I' for Inactive)
REMARK    1  A    between atoms: O_2  and  C_3 
REMARK    2  A    between atoms: C_5  and  C_3 
REMARK    3  A    between atoms: C_7  and  C_8 
REMARK       I    between atoms: N_15  and  C_16 
REMARK    4  A    between atoms: C_16  and  C_18 
REMARK    5  A    between atoms: C_18  and  S_19 
REMARK    6  A    between atoms: S_19  and  C_20 
REMARK    7  A    between atoms: C_20  and  C_21 
ROOT
HETATM    1  C   UNK N   1     165.752 155.425 155.856  0.00  0.00     0.104 C 
HETATM    2  C   UNK N   1     167.031 155.694 156.659  0.00  0.00     0.027 C 
HETATM    3  C   UNK N   1     167.759 156.945 156.124  0.00  0.00     0.037 C 
HETATM    4  C   UNK N   1     167.663 157.086 154.596  0.00  0.00     0.135 C 
HETATM    5  N   UNK N   1     167.354 155.796 154.023  0.00  0.00    -0.350 N 
HETATM    6  C   UNK N   1     168.289 155.115 153.304  0.00  0.00     0.229 C 
HETATM    7  O   UNK N   1     169.383 155.624 153.093  0.00  0.00    -0.273 OA
HETATM    8  C   UNK N   1     166.081 155.188 154.367  0.00  0.00     0.140 C 
ENDROOT
BRANCH   6   9
HETATM    9  C   UNK N   1     167.995 153.731 152.780  0.00  0.00     0.177 C 
BRANCH   9  10
HETATM   10  S   UNK N   1     169.185 152.460 153.342  0.00  0.00    -0.154 SA
BRANCH  10  11
HETATM   11  C   UNK N   1     168.242 152.095 154.855  0.00  0.00     0.131 C 
BRANCH  11  12
HETATM   12  C   UNK N   1     168.434 150.678 155.263  0.00  0.00     0.018 A 
HETATM   13  C   UNK N   1     169.349 150.345 156.264  0.00  0.00     0.026 A 
HETATM   14  C   UNK N   1     169.504 149.007 156.628  0.00  0.00     0.003 A 
HETATM   15  C   UNK N   1     168.742 148.024 155.995  0.00  0.00     0.017 A 
HETATM   16  C   UNK N   1     167.836 148.396 154.999  0.00  0.00     0.088 A 
HETATM   17  N   UNK N   1     167.706 149.705 154.653  0.00  0.00    -0.369 N 
ATOM     18  HN  UNK N   1     167.045 149.962 153.919  1.00  0.00     0.165 HD
ENDBRANCH  11  12
ENDBRANCH  10  11
ENDBRANCH   9  10
ENDBRANCH   6   9
BRANCH   3  19
HETATM   19  C   UNK N   1     167.299 158.190 156.811  0.00  0.00    -0.052 A 
HETATM   20  C   UNK N   1     166.421 159.053 156.146  0.00  0.00     0.007 A 
HETATM   21  C   UNK N   1     165.984 160.226 156.769  0.00  0.00     0.001 A 
HETATM   22  C   UNK N   1     166.432 160.544 158.056  0.00  0.00     0.000 A 
HETATM   23  C   UNK N   1     167.311 159.685 158.722  0.00  0.00     0.001 A 
HETATM   24  C   UNK N   1     167.741 158.508 158.105  0.00  0.00     0.007 A 
ENDBRANCH   3  19
BRANCH   1  25
HETATM   25  C   UNK N   1     164.959 154.302 156.463  0.00  0.00     0.264 C 
HETATM   26  O   UNK N   1     165.273 153.137 156.258  0.00  0.00    -0.265 OA
BRANCH  25  27
HETATM   27  O   UNK N   1     163.888 154.599 157.240  0.00  0.00    -0.326 OA
HETATM   28  C   UNK N   1     163.960 154.629 158.613  0.00  0.00     0.213 C 
ENDBRANCH  25  27
ENDBRANCH   1  25
TORSDOF 7
ENDMDL
MODEL 3
REMARK VINA RESULT:      -6.3      2.624      7.436
REMARK  7 active torsions:
REMARK  status: ('A' for Active; 'I' for Inactive)
REMARK    1  A    between atoms: O_2  and  C_3 
REMARK    2  A    between atoms: C_5  and  C_3 
REMARK    3  A    between atoms: C_7  and  C_8 
REMARK       I    between atoms: N_15  and  C_16 
REMARK    4  A    between atoms: C_16  and  C_18 
REMARK    5  A    between atoms: C_18  and  S_19 
REMARK    6  A    between atoms: S_19  and  C_20 
REMARK    7  A    between atoms: C_20  and  C_21 
ROOT
HETATM    1  C   UNK N   1     168.662 154.365 156.325  0.00  0.00     0.104 C 
HETATM    2  C   UNK N   1     167.619 153.445 155.678  0.00  0.00     0.027 C 
HETATM    3  C   UNK N   1     168.153 152.862 154.353  0.00  0.00     0.037 C 
HETATM    4  C   UNK N   1     169.020 153.858 153.565  0.00  0.00     0.135 C 
HETATM    5  N   UNK N   1     168.714 155.199 154.008  0.00  0.00    -0.350 N 
HETATM    6  C   UNK N   1     168.040 156.060 153.197  0.00  0.00     0.229 C 
HETATM    7  O   UNK N   1     167.739 155.715 152.060  0.00  0.00    -0.273 OA
HETATM    8  C   UNK N   1     169.009 155.542 155.388  0.00  0.00     0.140 C 
ENDROOT
BRANCH   6   9
HETATM    9  C   UNK N   1     167.645 157.430 153.691  0.00  0.00     0.177 C 
BRANCH   9  10
HETATM   10  S   UNK N   1     165.837 157.675 153.821  0.00  0.00    -0.154 SA
BRANCH  10  11
HETATM   11  C   UNK N   1     165.850 157.592 155.640  0.00  0.00     0.131 C 
BRANCH  11  12
HETATM   12  C   UNK N   1     165.164 156.361 156.113  0.00  0.00     0.018 A 
HETATM   13  C   UNK N   1     164.629 155.451 155.198  0.00  0.00     0.026 A 
HETATM   14  C   UNK N   1     163.995 154.302 155.673  0.00  0.00     0.003 A 
HETATM   15  C   UNK N   1     163.910 154.075 157.047  0.00  0.00     0.017 A 
HETATM   16  C   UNK N   1     164.458 155.007 157.930  0.00  0.00     0.088 A 
HETATM   17  N   UNK N   1     165.065 156.125 157.448  0.00  0.00    -0.369 N 
ATOM     18  HN  UNK N   1     165.456 156.801 158.105  1.00  0.00     0.165 HD
ENDBRANCH  11  12
ENDBRANCH  10  11
ENDBRANCH   9  10
ENDBRANCH   6   9
BRANCH   3  19
HETATM   19  C   UNK N   1     168.875 151.571 154.567  0.00  0.00    -0.052 A 
HETATM   20  C   UNK N   1     170.182 151.430 154.089  0.00  0.00     0.007 A 
HETATM   21  C   UNK N   1     170.872 150.228 154.274  0.00  0.00     0.001 A 
HETATM   22  C   UNK N   1     170.251 149.159 154.928  0.00  0.00     0.000 A 
HETATM   23  C   UNK N   1     168.944 149.294 155.404  0.00  0.00     0.001 A 
HETATM   24  C   UNK N   1     168.257 150.498 155.230  0.00  0.00     0.007 A 
ENDBRANCH   3  19
BRANCH   1  25
HETATM   25  C   UNK N   1     168.214 154.817 157.687  0.00  0.00     0.264 C 
HETATM   26  O   UNK N   1     168.154 156.010 157.957  0.00  0.00    -0.265 OA
BRANCH  25  27
HETATM   27  O   UNK N   1     167.879 153.884 158.611  0.00  0.00    -0.326 OA
HETATM   28  C   UNK N   1     167.496 154.218 159.889  0.00  0.00     0.213 C 
ENDBRANCH  25  27
ENDBRANCH   1  25
TORSDOF 7
ENDMDL
MODEL 4
REMARK VINA RESULT:      -6.3      2.173      8.282
REMARK  7 active torsions:
REMARK  status: ('A' for Active; 'I' for Inactive)
REMARK    1  A    between atoms: O_2  and  C_3 
REMARK    2  A    between atoms: C_5  and  C_3 
REMARK    3  A    between atoms: C_7  and  C_8 
REMARK       I    between atoms: N_15  and  C_16 
REMARK    4  A    between atoms: C_16  and  C_18 
REMARK    5  A    between atoms: C_18  and  S_19 
REMARK    6  A    between atoms: S_19  and  C_20 
REMARK    7  A    between atoms: C_20  and  C_21 
ROOT
HETATM    1  C   UNK N   1     168.358 154.263 156.384  0.00  0.00     0.104 C 
HETATM    2  C   UNK N   1     167.444 153.380 155.525  0.00  0.00     0.027 C 
HETATM    3  C   UNK N   1     168.186 152.895 154.261  0.00  0.00     0.037 C 
HETATM    4  C   UNK N   1     169.142 153.952 153.684  0.00  0.00     0.135 C 
HETATM    5  N   UNK N   1     168.745 155.256 154.164  0.00  0.00    -0.350 N 
HETATM    6  C   UNK N   1     168.185 156.165 153.318  0.00  0.00     0.229 C 
HETATM    7  O   UNK N   1     168.068 155.896 152.128  0.00  0.00    -0.273 OA
HETATM    8  C   UNK N   1     168.820 155.506 155.593  0.00  0.00     0.140 C 
ENDROOT
BRANCH   6   9
HETATM    9  C   UNK N   1     167.693 157.493 153.836  0.00  0.00     0.177 C 
BRANCH   9  10
HETATM   10  S   UNK N   1     165.870 157.652 153.845  0.00  0.00    -0.154 SA
BRANCH  10  11
HETATM   11  C   UNK N   1     165.759 157.494 155.655  0.00  0.00     0.131 C 
BRANCH  11  12
HETATM   12  C   UNK N   1     166.221 158.742 156.319  0.00  0.00     0.018 A 
HETATM   13  C   UNK N   1     167.146 158.690 157.364  0.00  0.00     0.026 A 
HETATM   14  C   UNK N   1     167.563 159.878 157.963  0.00  0.00     0.003 A 
HETATM   15  C   UNK N   1     167.059 161.098 157.510  0.00  0.00     0.017 A 
HETATM   16  C   UNK N   1     166.137 161.110 156.461  0.00  0.00     0.088 A 
HETATM   17  N   UNK N   1     165.736 159.940 155.895  0.00  0.00    -0.369 N 
ATOM     18  HN  UNK N   1     165.056 159.962 155.134  1.00  0.00     0.165 HD
ENDBRANCH  11  12
ENDBRANCH  10  11
ENDBRANCH   9  10
ENDBRANCH   6   9
BRANCH   3  19
HETATM   19  C   UNK N   1     168.892 151.599 154.496  0.00  0.00    -0.052 A 
HETATM   20  C   UNK N   1     170.202 151.440 154.032  0.00  0.00     0.007 A 
HETATM   21  C   UNK N   1     170.878 150.233 154.237  0.00  0.00     0.001 A 
HETATM   22  C   UNK N   1     170.241 149.178 154.898  0.00  0.00     0.000 A 
HETATM   23  C   UNK N   1     168.931 149.332 155.361  0.00  0.00     0.001 A 
HETATM   24  C   UNK N   1     168.258 150.541 155.166  0.00  0.00     0.007 A 
ENDBRANCH   3  19
BRANCH   1  25
HETATM   25  C   UNK N   1     167.698 154.616 157.688  0.00  0.00     0.264 C 
HETATM   26  O   UNK N   1     168.243 155.381 158.473  0.00  0.00    -0.265 OA
BRANCH  25  27
HETATM   27  O   UNK N   1     166.492 154.072 157.982  0.00  0.00    -0.326 OA
HETATM   28  C   UNK N   1     165.397 154.838 158.305  0.00  0.00     0.213 C 
ENDBRANCH  25  27
ENDBRANCH   1  25
TORSDOF 7
ENDMDL
MODEL 5
REMARK VINA RESULT:      -6.2      2.804      7.783
REMARK  7 active torsions:
REMARK  status: ('A' for Active; 'I' for Inactive)
REMARK    1  A    between atoms: O_2  and  C_3 
REMARK    2  A    between atoms: C_5  and  C_3 
REMARK    3  A    between atoms: C_7  and  C_8 
REMARK       I    between atoms: N_15  and  C_16 
REMARK    4  A    between atoms: C_16  and  C_18 
REMARK    5  A    between atoms: C_18  and  S_19 
REMARK    6  A    between atoms: S_19  and  C_20 
REMARK    7  A    between atoms: C_20  and  C_21 
ROOT
HETATM    1  C   UNK N   1     165.768 155.827 154.096  0.00  0.00     0.104 C 
HETATM    2  C   UNK N   1     167.189 155.999 153.545  0.00  0.00     0.027 C 
HETATM    3  C   UNK N   1     167.821 154.628 153.226  0.00  0.00     0.037 C 
HETATM    4  C   UNK N   1     167.420 153.535 154.232  0.00  0.00     0.135 C 
HETATM    5  N   UNK N   1     166.973 154.163 155.454  0.00  0.00    -0.350 N 
HETATM    6  C   UNK N   1     167.727 154.092 156.586  0.00  0.00     0.229 C 
HETATM    7  O   UNK N   1     168.767 153.443 156.583  0.00  0.00    -0.273 OA
HETATM    8  C   UNK N   1     165.782 154.993 155.395  0.00  0.00     0.140 C 
ENDROOT
BRANCH   6   9
HETATM    9  C   UNK N   1     167.302 154.819 157.837  0.00  0.00     0.177 C 
BRANCH   9  10
HETATM   10  S   UNK N   1     168.162 156.414 158.092  0.00  0.00    -0.154 SA
BRANCH  10  11
HETATM   11  C   UNK N   1     166.607 157.344 158.270  0.00  0.00     0.131 C 
BRANCH  11  12
HETATM   12  C   UNK N   1     166.810 158.776 157.926  0.00  0.00     0.018 A 
HETATM   13  C   UNK N   1     167.801 159.526 158.565  0.00  0.00     0.026 A 
HETATM   14  C   UNK N   1     167.971 160.866 158.217  0.00  0.00     0.003 A 
HETATM   15  C   UNK N   1     167.159 161.436 157.235  0.00  0.00     0.017 A 
HETATM   16  C   UNK N   1     166.181 160.654 156.618  0.00  0.00     0.088 A 
HETATM   17  N   UNK N   1     166.025 159.351 156.977  0.00  0.00    -0.369 N 
ATOM     18  HN  UNK N   1     165.302 158.793 156.522  1.00  0.00     0.165 HD
ENDBRANCH  11  12
ENDBRANCH  10  11
ENDBRANCH   9  10
ENDBRANCH   6   9
BRANCH   3  19
HETATM   19  C   UNK N   1     167.537 154.199 151.823  0.00  0.00    -0.052 A 
HETATM   20  C   UNK N   1     168.089 153.006 151.346  0.00  0.00     0.007 A 
HETATM   21  C   UNK N   1     167.841 152.592 150.034  0.00  0.00     0.001 A 
HETATM   22  C   UNK N   1     167.046 153.376 149.192  0.00  0.00     0.000 A 
HETATM   23  C   UNK N   1     166.494 154.571 149.663  0.00  0.00     0.001 A 
HETATM   24  C   UNK N   1     166.734 154.981 150.976  0.00  0.00     0.007 A 
ENDBRANCH   3  19
BRANCH   1  25
HETATM   25  C   UNK N   1     165.089 157.158 154.267  0.00  0.00     0.264 C 
HETATM   26  O   UNK N   1     165.112 157.987 153.366  0.00  0.00    -0.265 OA
BRANCH  25  27
HETATM   27  O   UNK N   1     164.453 157.426 155.434  0.00  0.00    -0.326 OA
HETATM   28  C   UNK N   1     163.090 157.593 155.508  0.00  0.00     0.213 C 
ENDBRANCH  25  27
ENDBRANCH   1  25
TORSDOF 7
ENDMDL
MODEL 6
REMARK VINA RESULT:      -6.1      3.326      4.398
REMARK  7 active torsions:
REMARK  status: ('A' for Active; 'I' for Inactive)
REMARK    1  A    between atoms: O_2  and  C_3 
REMARK    2  A    between atoms: C_5  and  C_3 
REMARK    3  A    between atoms: C_7  and  C_8 
REMARK       I    between atoms: N_15  and  C_16 
REMARK    4  A    between atoms: C_16  and  C_18 
REMARK    5  A    between atoms: C_18  and  S_19 
REMARK    6  A    between atoms: S_19  and  C_20 
REMARK    7  A    between atoms: C_20  and  C_21 
ROOT
HETATM    1  C   UNK N   1     165.713 156.758 155.759  0.00  0.00     0.104 C 
HETATM    2  C   UNK N   1     164.588 155.919 155.142  0.00  0.00     0.027 C 
HETATM    3  C   UNK N   1     164.150 154.797 156.109  0.00  0.00     0.037 C 
HETATM    4  C   UNK N   1     165.323 154.202 156.906  0.00  0.00     0.135 C 
HETATM    5  N   UNK N   1     166.556 154.488 156.211  0.00  0.00    -0.350 N 
HETATM    6  C   UNK N   1     167.251 153.493 155.592  0.00  0.00     0.229 C 
HETATM    7  O   UNK N   1     166.856 152.337 155.671  0.00  0.00    -0.273 OA
HETATM    8  C   UNK N   1     166.946 155.880 156.065  0.00  0.00     0.140 C 
ENDROOT
BRANCH   6   9
HETATM    9  C   UNK N   1     168.493 153.807 154.794  0.00  0.00     0.177 C 
BRANCH   9  10
HETATM   10  S   UNK N   1     168.546 152.988 153.159  0.00  0.00    -0.154 SA
BRANCH  10  11
HETATM   11  C   UNK N   1     169.937 151.910 153.626  0.00  0.00     0.131 C 
BRANCH  11  12
HETATM   12  C   UNK N   1     169.444 150.686 154.310  0.00  0.00     0.018 A 
HETATM   13  C   UNK N   1     170.197 150.086 155.323  0.00  0.00     0.026 A 
HETATM   14  C   UNK N   1     169.706 148.941 155.949  0.00  0.00     0.003 A 
HETATM   15  C   UNK N   1     168.472 148.415 155.563  0.00  0.00     0.017 A 
HETATM   16  C   UNK N   1     167.748 149.042 154.547  0.00  0.00     0.088 A 
HETATM   17  N   UNK N   1     168.247 150.154 153.943  0.00  0.00    -0.369 N 
ATOM     18  HN  UNK N   1     167.711 150.599 153.198  1.00  0.00     0.165 HD
ENDBRANCH  11  12
ENDBRANCH  10  11
ENDBRANCH   9  10
ENDBRANCH   6   9
BRANCH   3  19
HETATM   19  C   UNK N   1     163.053 155.247 157.019  0.00  0.00    -0.052 A 
HETATM   20  C   UNK N   1     161.883 155.781 156.468  0.00  0.00     0.007 A 
HETATM   21  C   UNK N   1     160.848 156.214 157.302  0.00  0.00     0.001 A 
HETATM   22  C   UNK N   1     160.985 156.122 158.691  0.00  0.00     0.000 A 
HETATM   23  C   UNK N   1     162.153 155.591 159.246  0.00  0.00     0.001 A 
HETATM   24  C   UNK N   1     163.184 155.150 158.413  0.00  0.00     0.007 A 
ENDBRANCH   3  19
BRANCH   1  25
HETATM   25  C   UNK N   1     166.042 157.942 154.893  0.00  0.00     0.264 C 
HETATM   26  O   UNK N   1     166.722 157.804 153.885  0.00  0.00    -0.265 OA
BRANCH  25  27
HETATM   27  O   UNK N   1     165.575 159.164 155.247  0.00  0.00    -0.326 OA
HETATM   28  C   UNK N   1     166.044 159.841 156.349  0.00  0.00     0.213 C 
ENDBRANCH  25  27
ENDBRANCH   1  25
TORSDOF 7
ENDMDL
MODEL 7
REMARK VINA RESULT:      -6.0      3.811      6.142
REMARK  7 active torsions:
REMARK  status: ('A' for Active; 'I' for Inactive)
REMARK    1  A    between atoms: O_2  and  C_3 
REMARK    2  A    between atoms: C_5  and  C_3 
REMARK    3  A    between atoms: C_7  and  C_8 
REMARK       I    between atoms: N_15  and  C_16 
REMARK    4  A    between atoms: C_16  and  C_18 
REMARK    5  A    between atoms: C_18  and  S_19 
REMARK    6  A    between atoms: S_19  and  C_20 
REMARK    7  A    between atoms: C_20  and  C_21 
ROOT
HETATM    1  C   UNK N   1     165.768 156.925 157.852  0.00  0.00     0.104 C 
HETATM    2  C   UNK N   1     164.742 156.721 156.731  0.00  0.00     0.027 C 
HETATM    3  C   UNK N   1     163.989 155.386 156.915  0.00  0.00     0.037 C 
HETATM    4  C   UNK N   1     164.883 154.265 157.470  0.00  0.00     0.135 C 
HETATM    5  N   UNK N   1     166.266 154.598 157.216  0.00  0.00    -0.350 N 
HETATM    6  C   UNK N   1     166.988 153.903 156.293  0.00  0.00     0.229 C 
HETATM    7  O   UNK N   1     166.478 152.952 155.714  0.00  0.00    -0.273 OA
HETATM    8  C   UNK N   1     166.808 155.784 157.857  0.00  0.00     0.140 C 
ENDROOT
BRANCH   6   9
HETATM    9  C   UNK N   1     168.404 154.306 155.966  0.00  0.00     0.177 C 
BRANCH   9  10
HETATM   10  S   UNK N   1     168.725 154.491 154.174  0.00  0.00    -0.154 SA
BRANCH  10  11
HETATM   11  C   UNK N   1     168.570 156.304 154.226  0.00  0.00     0.131 C 
BRANCH  11  12
HETATM   12  C   UNK N   1     167.204 156.725 153.819  0.00  0.00     0.018 A 
HETATM   13  C   UNK N   1     166.298 155.795 153.304  0.00  0.00     0.026 A 
HETATM   14  C   UNK N   1     165.022 156.220 152.935  0.00  0.00     0.003 A 
HETATM   15  C   UNK N   1     164.666 157.560 153.089  0.00  0.00     0.017 A 
HETATM   16  C   UNK N   1     165.598 158.460 153.608  0.00  0.00     0.088 A 
HETATM   17  N   UNK N   1     166.840 158.029 153.955  0.00  0.00    -0.369 N 
ATOM     18  HN  UNK N   1     167.514 158.699 154.327  1.00  0.00     0.165 HD
ENDBRANCH  11  12
ENDBRANCH  10  11
ENDBRANCH   9  10
ENDBRANCH   6   9
BRANCH   3  19
HETATM   19  C   UNK N   1     162.758 155.555 157.746  0.00  0.00    -0.052 A 
HETATM   20  C   UNK N   1     162.790 155.196 159.097  0.00  0.00     0.007 A 
HETATM   21  C   UNK N   1     161.647 155.340 159.889  0.00  0.00     0.001 A 
HETATM   22  C   UNK N   1     160.465 155.835 159.329  0.00  0.00     0.000 A 
HETATM   23  C   UNK N   1     160.428 156.193 157.978  0.00  0.00     0.001 A 
HETATM   24  C   UNK N   1     161.572 156.059 157.188  0.00  0.00     0.007 A 
ENDBRANCH   3  19
BRANCH   1  25
HETATM   25  C   UNK N   1     166.398 158.287 157.768  0.00  0.00     0.264 C 
HETATM   26  O   UNK N   1     167.096 158.590 156.809  0.00  0.00    -0.265 OA
BRANCH  25  27
HETATM   27  O   UNK N   1     166.183 159.173 158.771  0.00  0.00    -0.326 OA
HETATM   28  C   UNK N   1     166.053 158.784 160.083  0.00  0.00     0.213 C 
ENDBRANCH  25  27
ENDBRANCH   1  25
TORSDOF 7
ENDMDL
MODEL 8
REMARK VINA RESULT:      -6.0      4.362      7.304
REMARK  7 active torsions:
REMARK  status: ('A' for Active; 'I' for Inactive)
REMARK    1  A    between atoms: O_2  and  C_3 
REMARK    2  A    between atoms: C_5  and  C_3 
REMARK    3  A    between atoms: C_7  and  C_8 
REMARK       I    between atoms: N_15  and  C_16 
REMARK    4  A    between atoms: C_16  and  C_18 
REMARK    5  A    between atoms: C_18  and  S_19 
REMARK    6  A    between atoms: S_19  and  C_20 
REMARK    7  A    between atoms: C_20  and  C_21 
ROOT
HETATM    1  C   UNK N   1     164.504 154.716 157.180  0.00  0.00     0.104 C 
HETATM    2  C   UNK N   1     164.628 155.933 158.105  0.00  0.00     0.027 C 
HETATM    3  C   UNK N   1     163.255 156.609 158.305  0.00  0.00     0.037 C 
HETATM    4  C   UNK N   1     162.384 156.583 157.038  0.00  0.00     0.135 C 
HETATM    5  N   UNK N   1     163.235 156.384 155.887  0.00  0.00    -0.350 N 
HETATM    6  C   UNK N   1     163.448 157.395 155.000  0.00  0.00     0.229 C 
HETATM    7  O   UNK N   1     162.870 158.465 155.147  0.00  0.00    -0.273 OA
HETATM    8  C   UNK N   1     163.970 155.135 155.794  0.00  0.00     0.140 C 
ENDROOT
BRANCH   6   9
HETATM    9  C   UNK N   1     164.404 157.214 153.846  0.00  0.00     0.177 C 
BRANCH   9  10
HETATM   10  S   UNK N   1     165.892 158.274 153.947  0.00  0.00    -0.154 SA
BRANCH  10  11
HETATM   11  C   UNK N   1     166.896 156.971 154.727  0.00  0.00     0.131 C 
BRANCH  11  12
HETATM   12  C   UNK N   1     167.311 157.378 156.095  0.00  0.00     0.018 A 
HETATM   13  C   UNK N   1     166.798 158.540 156.677  0.00  0.00     0.026 A 
HETATM   14  C   UNK N   1     167.203 158.893 157.964  0.00  0.00     0.003 A 
HETATM   15  C   UNK N   1     168.105 158.082 158.654  0.00  0.00     0.017 A 
HETATM   16  C   UNK N   1     168.595 156.927 158.040  0.00  0.00     0.088 A 
HETATM   17  N   UNK N   1     168.194 156.604 156.782  0.00  0.00    -0.369 N 
ATOM     18  HN  UNK N   1     168.565 155.761 156.342  1.00  0.00     0.165 HD
ENDBRANCH  11  12
ENDBRANCH  10  11
ENDBRANCH   9  10
ENDBRANCH   6   9
BRANCH   3  19
HETATM   19  C   UNK N   1     162.522 156.038 159.475  0.00  0.00    -0.052 A 
HETATM   20  C   UNK N   1     161.129 155.923 159.420  0.00  0.00     0.007 A 
HETATM   21  C   UNK N   1     160.424 155.398 160.507  0.00  0.00     0.001 A 
HETATM   22  C   UNK N   1     161.110 154.995 161.657  0.00  0.00     0.000 A 
HETATM   23  C   UNK N   1     162.502 155.110 161.718  0.00  0.00     0.001 A 
HETATM   24  C   UNK N   1     163.208 155.626 160.629  0.00  0.00     0.007 A 
ENDBRANCH   3  19
BRANCH   1  25
HETATM   25  C   UNK N   1     165.803 153.963 157.100  0.00  0.00     0.264 C 
HETATM   26  O   UNK N   1     166.632 154.057 157.996  0.00  0.00    -0.265 OA
BRANCH  25  27
HETATM   27  O   UNK N   1     166.043 153.180 156.020  0.00  0.00    -0.326 OA
HETATM   28  C   UNK N   1     167.225 153.234 155.319  0.00  0.00     0.213 C 
ENDBRANCH  25  27
ENDBRANCH   1  25
TORSDOF 7
ENDMDL
MODEL 9
REMARK VINA RESULT:      -6.0      2.066      2.989
REMARK  7 active torsions:
REMARK  status: ('A' for Active; 'I' for Inactive)
REMARK    1  A    between atoms: O_2  and  C_3 
REMARK    2  A    between atoms: C_5  and  C_3 
REMARK    3  A    between atoms: C_7  and  C_8 
REMARK       I    between atoms: N_15  and  C_16 
REMARK    4  A    between atoms: C_16  and  C_18 
REMARK    5  A    between atoms: C_18  and  S_19 
REMARK    6  A    between atoms: S_19  and  C_20 
REMARK    7  A    between atoms: C_20  and  C_21 
ROOT
HETATM    1  C   UNK N   1     166.831 157.357 154.767  0.00  0.00     0.104 C 
HETATM    2  C   UNK N   1     166.050 157.338 156.087  0.00  0.00     0.027 C 
HETATM    3  C   UNK N   1     167.014 157.270 157.290  0.00  0.00     0.037 C 
HETATM    4  C   UNK N   1     168.254 156.402 157.017  0.00  0.00     0.135 C 
HETATM    5  N   UNK N   1     167.966 155.503 155.924  0.00  0.00    -0.350 N 
HETATM    6  C   UNK N   1     167.816 154.167 156.145  0.00  0.00     0.229 C 
HETATM    7  O   UNK N   1     167.983 153.716 157.272  0.00  0.00    -0.273 OA
HETATM    8  C   UNK N   1     167.691 156.083 154.621  0.00  0.00     0.140 C 
ENDROOT
BRANCH   6   9
HETATM    9  C   UNK N   1     167.431 153.241 155.019  0.00  0.00     0.177 C 
BRANCH   9  10
HETATM   10  S   UNK N   1     168.861 152.492 154.157  0.00  0.00    -0.154 SA
BRANCH  10  11
HETATM   11  C   UNK N   1     168.357 150.793 154.576  0.00  0.00     0.131 C 
BRANCH  11  12
HETATM   12  C   UNK N   1     168.932 150.384 155.884  0.00  0.00     0.018 A 
HETATM   13  C   UNK N   1     168.645 149.128 156.424  0.00  0.00     0.026 A 
HETATM   14  C   UNK N   1     169.203 148.771 157.651  0.00  0.00     0.003 A 
HETATM   15  C   UNK N   1     170.043 149.665 158.317  0.00  0.00     0.017 A 
HETATM   16  C   UNK N   1     170.308 150.910 157.745  0.00  0.00     0.088 A 
HETATM   17  N   UNK N   1     169.748 151.243 156.551  0.00  0.00    -0.369 N 
ATOM     18  HN  UNK N   1     169.944 152.160 156.147  1.00  0.00     0.165 HD
ENDBRANCH  11  12
ENDBRANCH  10  11
ENDBRANCH   9  10
ENDBRANCH   6   9
BRANCH   3  19
HETATM   19  C   UNK N   1     167.404 158.632 157.765  0.00  0.00    -0.052 A 
HETATM   20  C   UNK N   1     166.582 159.723 157.463  0.00  0.00     0.007 A 
HETATM   21  C   UNK N   1     166.932 161.006 157.892  0.00  0.00     0.001 A 
HETATM   22  C   UNK N   1     168.112 161.204 158.618  0.00  0.00     0.000 A 
HETATM   23  C   UNK N   1     168.937 160.117 158.920  0.00  0.00     0.001 A 
HETATM   24  C   UNK N   1     168.583 158.833 158.500  0.00  0.00     0.007 A 
ENDBRANCH   3  19
BRANCH   1  25
HETATM   25  C   UNK N   1     165.911 157.575 153.598  0.00  0.00     0.264 C 
HETATM   26  O   UNK N   1     165.641 158.709 153.222  0.00  0.00    -0.265 OA
BRANCH  25  27
HETATM   27  O   UNK N   1     165.383 156.497 152.967  0.00  0.00    -0.326 OA
HETATM   28  C   UNK N   1     164.099 156.063 153.200  0.00  0.00     0.213 C 
ENDBRANCH  25  27
ENDBRANCH   1  25
TORSDOF 7
ENDMDL
