MODEL 1
REMARK VINA RESULT:      -5.9      0.000      0.000
REMARK  4 active torsions:
REMARK  status: ('A' for Active; 'I' for Inactive)
REMARK       I    between atoms: C_2  and  N_4 
REMARK    1  A    between atoms: N_4  and  C_5 
REMARK    2  A    between atoms: C_5  and  C_6 
REMARK    3  A    between atoms: C_9  and  C_10 
REMARK       I    between atoms: C_10  and  N_12 
REMARK    4  A    between atoms: C_15  and  O_16 
ROOT
HETATM    1  C   UNK N   1     168.614 155.212 153.750  0.00  0.00     0.260 C 
HETATM    2  O   UNK N   1     169.698 155.777 153.665  0.00  0.00    -0.267 OA
HETATM    3  N   UNK N   1     167.470 155.939 153.565  0.00  0.00    -0.347 N 
HETATM    4  C   UNK N   1     167.544 157.364 153.317  0.00  0.00     0.129 C 
HETATM    5  C   UNK N   1     166.851 158.103 154.465  0.00  0.00     0.058 C 
HETATM    6  C   UNK N   1     165.430 157.572 154.695  0.00  0.00     0.064 C 
HETATM    7  C   UNK N   1     164.875 158.214 155.975  0.00  0.00     0.038 C 
HETATM    8  C   UNK N   1     163.864 157.343 156.739  0.00  0.00     0.003 C 
HETATM    9  C   UNK N   1     163.105 156.388 155.818  0.00  0.00     0.001 C 
HETATM   10  C   UNK N   1     164.045 155.454 155.042  0.00  0.00     0.009 C 
HETATM   11  C   UNK N   1     165.450 156.037 154.856  0.00  0.00     0.038 C 
HETATM   12  C   UNK N   1     166.154 155.361 153.689  0.00  0.00     0.133 C 
ENDROOT
BRANCH   1  13
HETATM   13  C   UNK N   1     168.622 153.756 154.080  0.00  0.00     0.073 A 
HETATM   14  C   UNK N   1     168.376 153.259 155.366  0.00  0.00     0.026 A 
HETATM   15  C   UNK N   1     168.418 151.841 155.444  0.00  0.00     0.018 A 
HETATM   16  C   UNK N   1     168.698 151.229 154.217  0.00  0.00     0.001 A 
HETATM   17  S   UNK N   1     168.879 152.433 153.097  0.00  0.00    -0.088 SA
BRANCH  16  18
HETATM   18  C   UNK N   1     168.815 149.759 153.967  0.00  0.00     0.168 C 
BRANCH  18  19
HETATM   19  N   UNK N   1     168.303 149.447 152.652  0.00  0.00    -0.357 N 
HETATM   20  C   UNK N   1     169.003 148.738 151.739  0.00  0.00     0.213 C 
HETATM   21  C   UNK N   1     168.395 148.463 150.408  0.00  0.00     0.117 C 
HETATM   22  O   UNK N   1     170.123 148.322 151.993  0.00  0.00    -0.274 OA
HETATM   23  H   UNK N   1     167.404 149.767 152.410  0.00  0.00     0.162 HD
ENDBRANCH  18  19
ENDBRANCH  16  18
ENDBRANCH   1  13
BRANCH   6  24
HETATM   24  O   UNK N   1     164.623 157.931 153.610  0.00  0.00    -0.389 OA
HETATM   25  H   UNK N   1     164.853 157.387 152.841  0.00  0.00     0.210 HD
ENDBRANCH   6  24
TORSDOF 4
ENDMDL
MODEL 2
REMARK VINA RESULT:      -5.8      1.972      2.568
REMARK  4 active torsions:
REMARK  status: ('A' for Active; 'I' for Inactive)
REMARK       I    between atoms: C_2  and  N_4 
REMARK    1  A    between atoms: N_4  and  C_5 
REMARK    2  A    between atoms: C_5  and  C_6 
REMARK    3  A    between atoms: C_9  and  C_10 
REMARK       I    between atoms: C_10  and  N_12 
REMARK    4  A    between atoms: C_15  and  O_16 
ROOT
HETATM    1  C   UNK N   1     168.521 155.210 153.699  0.00  0.00     0.260 C 
HETATM    2  O   UNK N   1     169.619 155.753 153.665  0.00  0.00    -0.267 OA
HETATM    3  N   UNK N   1     167.397 155.978 153.564  0.00  0.00    -0.347 N 
HETATM    4  C   UNK N   1     167.508 157.416 153.428  0.00  0.00     0.129 C 
HETATM    5  C   UNK N   1     166.824 158.081 154.626  0.00  0.00     0.058 C 
HETATM    6  C   UNK N   1     165.388 157.569 154.805  0.00  0.00     0.064 C 
HETATM    7  C   UNK N   1     164.838 158.123 156.127  0.00  0.00     0.038 C 
HETATM    8  C   UNK N   1     163.799 157.221 156.813  0.00  0.00     0.003 C 
HETATM    9  C   UNK N   1     163.025 156.360 155.816  0.00  0.00     0.001 C 
HETATM   10  C   UNK N   1     163.948 155.466 154.976  0.00  0.00     0.009 C 
HETATM   11  C   UNK N   1     165.369 156.026 154.845  0.00  0.00     0.038 C 
HETATM   12  C   UNK N   1     166.066 155.426 153.634  0.00  0.00     0.133 C 
ENDROOT
BRANCH   1  13
HETATM   13  C   UNK N   1     168.490 153.733 153.915  0.00  0.00     0.073 A 
HETATM   14  C   UNK N   1     168.983 152.810 152.986  0.00  0.00     0.026 A 
HETATM   15  C   UNK N   1     168.864 151.459 153.408  0.00  0.00     0.018 A 
HETATM   16  C   UNK N   1     168.275 151.326 154.671  0.00  0.00     0.001 A 
HETATM   17  S   UNK N   1     167.930 152.849 155.216  0.00  0.00    -0.088 SA
BRANCH  16  18
HETATM   18  C   UNK N   1     168.006 150.043 155.392  0.00  0.00     0.168 C 
BRANCH  18  19
HETATM   19  N   UNK N   1     169.256 149.443 155.798  0.00  0.00    -0.357 N 
HETATM   20  C   UNK N   1     169.491 149.013 157.057  0.00  0.00     0.213 C 
HETATM   21  C   UNK N   1     170.810 148.404 157.385  0.00  0.00     0.117 C 
HETATM   22  O   UNK N   1     168.638 149.117 157.924  0.00  0.00    -0.274 OA
HETATM   23  H   UNK N   1     169.968 149.342 155.126  0.00  0.00     0.162 HD
ENDBRANCH  18  19
ENDBRANCH  16  18
ENDBRANCH   1  13
BRANCH   6  24
HETATM   24  O   UNK N   1     164.600 158.032 153.745  0.00  0.00    -0.389 OA
HETATM   25  H   UNK N   1     165.030 157.817 152.903  0.00  0.00     0.210 HD
ENDBRANCH   6  24
TORSDOF 4
ENDMDL
MODEL 3
REMARK VINA RESULT:      -5.8      2.276      3.365
REMARK  4 active torsions:
REMARK  status: ('A' for Active; 'I' for Inactive)
REMARK       I    between atoms: C_2  and  N_4 
REMARK    1  A    between atoms: N_4  and  C_5 
REMARK    2  A    between atoms: C_5  and  C_6 
REMARK    3  A    between atoms: C_9  and  C_10 
REMARK       I    between atoms: C_10  and  N_12 
REMARK    4  A    between atoms: C_15  and  O_16 
ROOT
HETATM    1  C   UNK N   1     168.973 152.023 155.853  0.00  0.00     0.260 C 
HETATM    2  O   UNK N   1     169.045 151.484 156.950  0.00  0.00    -0.267 OA
HETATM    3  N   UNK N   1     168.666 153.355 155.788  0.00  0.00    -0.347 N 
HETATM    4  C   UNK N   1     168.389 154.099 156.999  0.00  0.00     0.129 C 
HETATM    5  C   UNK N   1     166.944 154.604 156.951  0.00  0.00     0.058 C 
HETATM    6  C   UNK N   1     166.664 155.375 155.654  0.00  0.00     0.064 C 
HETATM    7  C   UNK N   1     165.159 155.675 155.585  0.00  0.00     0.038 C 
HETATM    8  C   UNK N   1     164.592 155.762 154.158  0.00  0.00     0.003 C 
HETATM    9  C   UNK N   1     165.640 156.212 153.140  0.00  0.00     0.001 C 
HETATM   10  C   UNK N   1     166.861 155.282 153.109  0.00  0.00     0.009 C 
HETATM   11  C   UNK N   1     167.079 154.533 154.428  0.00  0.00     0.038 C 
HETATM   12  C   UNK N   1     168.520 154.059 154.537  0.00  0.00     0.133 C 
ENDROOT
BRANCH   1  13
HETATM   13  C   UNK N   1     169.201 151.171 154.650  0.00  0.00     0.073 A 
HETATM   14  C   UNK N   1     170.287 151.340 153.782  0.00  0.00     0.026 A 
HETATM   15  C   UNK N   1     170.312 150.405 152.713  0.00  0.00     0.018 A 
HETATM   16  C   UNK N   1     169.243 149.503 152.744  0.00  0.00     0.001 A 
HETATM   17  S   UNK N   1     168.320 149.879 154.065  0.00  0.00    -0.088 SA
BRANCH  16  18
HETATM   18  C   UNK N   1     168.981 148.406 151.762  0.00  0.00     0.168 C 
BRANCH  18  19
HETATM   19  N   UNK N   1     169.795 148.603 150.585  0.00  0.00    -0.357 N 
HETATM   20  C   UNK N   1     169.286 148.987 149.394  0.00  0.00     0.213 C 
HETATM   21  C   UNK N   1     170.201 149.168 148.233  0.00  0.00     0.117 C 
HETATM   22  O   UNK N   1     168.089 149.188 149.260  0.00  0.00    -0.274 OA
HETATM   23  H   UNK N   1     170.766 148.450 150.654  0.00  0.00     0.162 HD
ENDBRANCH  18  19
ENDBRANCH  16  18
ENDBRANCH   1  13
BRANCH   6  24
HETATM   24  O   UNK N   1     167.376 156.580 155.673  0.00  0.00    -0.389 OA
HETATM   25  H   UNK N   1     168.314 156.405 155.506  0.00  0.00     0.210 HD
ENDBRANCH   6  24
TORSDOF 4
ENDMDL
MODEL 4
REMARK VINA RESULT:      -5.8      2.777      4.252
REMARK  4 active torsions:
REMARK  status: ('A' for Active; 'I' for Inactive)
REMARK       I    between atoms: C_2  and  N_4 
REMARK    1  A    between atoms: N_4  and  C_5 
REMARK    2  A    between atoms: C_5  and  C_6 
REMARK    3  A    between atoms: C_9  and  C_10 
REMARK       I    between atoms: C_10  and  N_12 
REMARK    4  A    between atoms: C_15  and  O_16 
ROOT
HETATM    1  C   UNK N   1     164.788 155.924 155.364  0.00  0.00     0.260 C 
HETATM    2  O   UNK N   1     163.737 155.872 154.738  0.00  0.00    -0.267 OA
HETATM    3  N   UNK N   1     164.854 156.706 156.485  0.00  0.00    -0.347 N 
HETATM    4  C   UNK N   1     163.709 157.492 156.894  0.00  0.00     0.129 C 
HETATM    5  C   UNK N   1     164.081 158.976 156.835  0.00  0.00     0.058 C 
HETATM    6  C   UNK N   1     165.364 159.264 157.627  0.00  0.00     0.064 C 
HETATM    7  C   UNK N   1     165.781 160.717 157.360  0.00  0.00     0.038 C 
HETATM    8  C   UNK N   1     167.296 160.969 157.436  0.00  0.00     0.003 C 
HETATM    9  C   UNK N   1     168.003 159.997 158.380  0.00  0.00     0.001 C 
HETATM   10  C   UNK N   1     167.785 158.532 157.977  0.00  0.00     0.009 C 
HETATM   11  C   UNK N   1     166.494 158.313 157.180  0.00  0.00     0.038 C 
HETATM   12  C   UNK N   1     166.064 156.856 157.258  0.00  0.00     0.133 C 
ENDROOT
BRANCH   1  13
HETATM   13  C   UNK N   1     165.944 155.140 154.836  0.00  0.00     0.073 A 
HETATM   14  C   UNK N   1     166.620 155.470 153.656  0.00  0.00     0.026 A 
HETATM   15  C   UNK N   1     167.697 154.594 153.355  0.00  0.00     0.018 A 
HETATM   16  C   UNK N   1     167.863 153.578 154.303  0.00  0.00     0.001 A 
HETATM   17  S   UNK N   1     166.700 153.789 155.459  0.00  0.00    -0.088 SA
BRANCH  16  18
HETATM   18  C   UNK N   1     168.899 152.499 154.272  0.00  0.00     0.168 C 
BRANCH  18  19
HETATM   19  N   UNK N   1     168.258 151.215 154.103  0.00  0.00    -0.357 N 
HETATM   20  C   UNK N   1     168.129 150.319 155.106  0.00  0.00     0.213 C 
HETATM   21  C   UNK N   1     167.451 149.020 154.840  0.00  0.00     0.117 C 
HETATM   22  O   UNK N   1     168.558 150.563 156.223  0.00  0.00    -0.274 OA
HETATM   23  H   UNK N   1     167.900 150.983 153.215  0.00  0.00     0.162 HD
ENDBRANCH  18  19
ENDBRANCH  16  18
ENDBRANCH   1  13
BRANCH   6  24
HETATM   24  O   UNK N   1     165.107 159.099 158.992  0.00  0.00    -0.389 OA
HETATM   25  H   UNK N   1     164.283 158.603 159.110  0.00  0.00     0.210 HD
ENDBRANCH   6  24
TORSDOF 4
ENDMDL
MODEL 5
REMARK VINA RESULT:      -5.7      3.446      7.737
REMARK  4 active torsions:
REMARK  status: ('A' for Active; 'I' for Inactive)
REMARK       I    between atoms: C_2  and  N_4 
REMARK    1  A    between atoms: N_4  and  C_5 
REMARK    2  A    between atoms: C_5  and  C_6 
REMARK    3  A    between atoms: C_9  and  C_10 
REMARK       I    between atoms: C_10  and  N_12 
REMARK    4  A    between atoms: C_15  and  O_16 
ROOT
HETATM    1  C   UNK N   1     165.069 157.261 154.476  0.00  0.00     0.260 C 
HETATM    2  O   UNK N   1     164.887 158.121 153.623  0.00  0.00    -0.267 OA
HETATM    3  N   UNK N   1     166.342 156.817 154.710  0.00  0.00    -0.347 N 
HETATM    4  C   UNK N   1     167.448 157.328 153.926  0.00  0.00     0.129 C 
HETATM    5  C   UNK N   1     168.069 156.174 153.136  0.00  0.00     0.058 C 
HETATM    6  C   UNK N   1     168.431 154.998 154.053  0.00  0.00     0.064 C 
HETATM    7  C   UNK N   1     168.860 153.814 153.174  0.00  0.00     0.038 C 
HETATM    8  C   UNK N   1     168.567 152.432 153.782  0.00  0.00     0.003 C 
HETATM    9  C   UNK N   1     168.565 152.455 155.310  0.00  0.00     0.001 C 
HETATM   10  C   UNK N   1     167.541 153.448 155.877  0.00  0.00     0.009 C 
HETATM   11  C   UNK N   1     167.214 154.591 154.910  0.00  0.00     0.038 C 
HETATM   12  C   UNK N   1     166.640 155.779 155.667  0.00  0.00     0.133 C 
ENDROOT
BRANCH   1  13
HETATM   13  C   UNK N   1     163.868 156.734 155.189  0.00  0.00     0.073 A 
HETATM   14  C   UNK N   1     163.419 155.414 155.065  0.00  0.00     0.026 A 
HETATM   15  C   UNK N   1     162.267 155.129 155.847  0.00  0.00     0.018 A 
HETATM   16  C   UNK N   1     161.816 156.230 156.584  0.00  0.00     0.001 A 
HETATM   17  S   UNK N   1     162.832 157.493 156.255  0.00  0.00    -0.088 SA
BRANCH  16  18
HETATM   18  C   UNK N   1     160.631 156.258 157.497  0.00  0.00     0.168 C 
BRANCH  18  19
HETATM   19  N   UNK N   1     160.874 155.404 158.636  0.00  0.00    -0.357 N 
HETATM   20  C   UNK N   1     161.271 155.875 159.838  0.00  0.00     0.213 C 
HETATM   21  C   UNK N   1     161.497 154.920 160.958  0.00  0.00     0.117 C 
HETATM   22  O   UNK N   1     161.444 157.071 160.017  0.00  0.00    -0.274 OA
HETATM   23  H   UNK N   1     160.745 154.433 158.530  0.00  0.00     0.162 HD
ENDBRANCH  18  19
ENDBRANCH  16  18
ENDBRANCH   1  13
BRANCH   6  24
HETATM   24  O   UNK N   1     169.498 155.372 154.879  0.00  0.00    -0.389 OA
HETATM   25  H   UNK N   1     169.203 155.386 155.802  0.00  0.00     0.210 HD
ENDBRANCH   6  24
TORSDOF 4
ENDMDL
MODEL 6
REMARK VINA RESULT:      -5.6     12.622     14.207
REMARK  4 active torsions:
REMARK  status: ('A' for Active; 'I' for Inactive)
REMARK       I    between atoms: C_2  and  N_4 
REMARK    1  A    between atoms: N_4  and  C_5 
REMARK    2  A    between atoms: C_5  and  C_6 
REMARK    3  A    between atoms: C_9  and  C_10 
REMARK       I    between atoms: C_10  and  N_12 
REMARK    4  A    between atoms: C_15  and  O_16 
ROOT
HETATM    1  C   UNK N   1     158.867 144.703 158.869  0.00  0.00     0.260 C 
HETATM    2  O   UNK N   1     159.850 144.218 158.322  0.00  0.00    -0.267 OA
HETATM    3  N   UNK N   1     157.838 145.166 158.094  0.00  0.00    -0.347 N 
HETATM    4  C   UNK N   1     157.935 145.119 156.650  0.00  0.00     0.129 C 
HETATM    5  C   UNK N   1     157.900 146.549 156.104  0.00  0.00     0.058 C 
HETATM    6  C   UNK N   1     156.685 147.321 156.635  0.00  0.00     0.064 C 
HETATM    7  C   UNK N   1     156.823 148.791 156.211  0.00  0.00     0.038 C 
HETATM    8  C   UNK N   1     156.175 149.796 157.178  0.00  0.00     0.003 C 
HETATM    9  C   UNK N   1     154.995 149.194 157.941  0.00  0.00     0.001 C 
HETATM   10  C   UNK N   1     155.395 147.951 158.748  0.00  0.00     0.009 C 
HETATM   11  C   UNK N   1     156.622 147.232 158.174  0.00  0.00     0.038 C 
HETATM   12  C   UNK N   1     156.663 145.789 158.654  0.00  0.00     0.133 C 
ENDROOT
BRANCH   1  13
HETATM   13  C   UNK N   1     158.876 144.781 160.359  0.00  0.00     0.073 A 
HETATM   14  C   UNK N   1     158.185 143.882 161.180  0.00  0.00     0.026 A 
HETATM   15  C   UNK N   1     158.349 144.137 162.567  0.00  0.00     0.018 A 
HETATM   16  C   UNK N   1     159.170 145.239 162.832  0.00  0.00     0.001 A 
HETATM   17  S   UNK N   1     159.659 145.850 161.374  0.00  0.00    -0.088 SA
BRANCH  16  18
HETATM   18  C   UNK N   1     159.533 145.768 164.183  0.00  0.00     0.168 C 
BRANCH  18  19
HETATM   19  N   UNK N   1     160.905 146.223 164.173  0.00  0.00    -0.357 N 
HETATM   20  C   UNK N   1     161.252 147.519 164.333  0.00  0.00     0.213 C 
HETATM   21  C   UNK N   1     162.693 147.896 164.311  0.00  0.00     0.117 C 
HETATM   22  O   UNK N   1     160.402 148.380 164.496  0.00  0.00    -0.274 OA
HETATM   23  H   UNK N   1     161.619 145.557 164.044  0.00  0.00     0.162 HD
ENDBRANCH  18  19
ENDBRANCH  16  18
ENDBRANCH   1  13
BRANCH   6  24
HETATM   24  O   UNK N   1     155.520 146.785 156.074  0.00  0.00    -0.389 OA
HETATM   25  H   UNK N   1     155.668 146.601 155.134  0.00  0.00     0.210 HD
ENDBRANCH   6  24
TORSDOF 4
ENDMDL
MODEL 7
REMARK VINA RESULT:      -5.4     13.147     14.714
REMARK  4 active torsions:
REMARK  status: ('A' for Active; 'I' for Inactive)
REMARK       I    between atoms: C_2  and  N_4 
REMARK    1  A    between atoms: N_4  and  C_5 
REMARK    2  A    between atoms: C_5  and  C_6 
REMARK    3  A    between atoms: C_9  and  C_10 
REMARK       I    between atoms: C_10  and  N_12 
REMARK    4  A    between atoms: C_15  and  O_16 
ROOT
HETATM    1  C   UNK N   1     158.909 144.904 158.885  0.00  0.00     0.260 C 
HETATM    2  O   UNK N   1     159.848 144.391 158.288  0.00  0.00    -0.267 OA
HETATM    3  N   UNK N   1     157.818 145.320 158.171  0.00  0.00    -0.347 N 
HETATM    4  C   UNK N   1     157.798 145.193 156.729  0.00  0.00     0.129 C 
HETATM    5  C   UNK N   1     157.711 146.591 156.110  0.00  0.00     0.058 C 
HETATM    6  C   UNK N   1     156.537 147.388 156.693  0.00  0.00     0.064 C 
HETATM    7  C   UNK N   1     156.630 148.832 156.179  0.00  0.00     0.038 C 
HETATM    8  C   UNK N   1     156.056 149.888 157.137  0.00  0.00     0.003 C 
HETATM    9  C   UNK N   1     154.945 149.327 158.026  0.00  0.00     0.001 C 
HETATM   10  C   UNK N   1     155.417 148.132 158.865  0.00  0.00     0.009 C 
HETATM   11  C   UNK N   1     156.599 147.385 158.235  0.00  0.00     0.038 C 
HETATM   12  C   UNK N   1     156.688 145.971 158.789  0.00  0.00     0.133 C 
ENDROOT
BRANCH   1  13
HETATM   13  C   UNK N   1     159.038 145.065 160.363  0.00  0.00     0.073 A 
HETATM   14  C   UNK N   1     159.689 146.149 160.964  0.00  0.00     0.026 A 
HETATM   15  C   UNK N   1     159.676 146.103 162.384  0.00  0.00     0.018 A 
HETATM   16  C   UNK N   1     159.013 144.980 162.894  0.00  0.00     0.001 A 
HETATM   17  S   UNK N   1     158.474 144.099 161.602  0.00  0.00    -0.088 SA
BRANCH  16  18
HETATM   18  C   UNK N   1     158.831 144.640 164.339  0.00  0.00     0.168 C 
BRANCH  18  19
HETATM   19  N   UNK N   1     159.527 145.606 165.157  0.00  0.00    -0.357 N 
HETATM   20  C   UNK N   1     158.938 146.268 166.176  0.00  0.00     0.213 C 
HETATM   21  C   UNK N   1     159.734 147.246 166.968  0.00  0.00     0.117 C 
HETATM   22  O   UNK N   1     157.765 146.074 166.455  0.00  0.00    -0.274 OA
HETATM   23  H   UNK N   1     160.475 145.789 164.962  0.00  0.00     0.162 HD
ENDBRANCH  18  19
ENDBRANCH  16  18
ENDBRANCH   1  13
BRANCH   6  24
HETATM   24  O   UNK N   1     155.334 146.819 156.259  0.00  0.00    -0.389 OA
HETATM   25  H   UNK N   1     155.322 146.788 155.290  0.00  0.00     0.210 HD
ENDBRANCH   6  24
TORSDOF 4
ENDMDL
MODEL 8
REMARK VINA RESULT:      -5.4      4.447      8.827
REMARK  4 active torsions:
REMARK  status: ('A' for Active; 'I' for Inactive)
REMARK       I    between atoms: C_2  and  N_4 
REMARK    1  A    between atoms: N_4  and  C_5 
REMARK    2  A    between atoms: C_5  and  C_6 
REMARK    3  A    between atoms: C_9  and  C_10 
REMARK       I    between atoms: C_10  and  N_12 
REMARK    4  A    between atoms: C_15  and  O_16 
ROOT
HETATM    1  C   UNK N   1     167.964 156.784 158.768  0.00  0.00     0.260 C 
HETATM    2  O   UNK N   1     168.854 156.372 159.501  0.00  0.00    -0.267 OA
HETATM    3  N   UNK N   1     167.354 155.910 157.909  0.00  0.00    -0.347 N 
HETATM    4  C   UNK N   1     167.789 154.531 157.842  0.00  0.00     0.129 C 
HETATM    5  C   UNK N   1     168.331 154.250 156.438  0.00  0.00     0.058 C 
HETATM    6  C   UNK N   1     167.318 154.651 155.357  0.00  0.00     0.064 C 
HETATM    7  C   UNK N   1     168.001 154.529 153.987  0.00  0.00     0.038 C 
HETATM    8  C   UNK N   1     167.472 155.506 152.923  0.00  0.00     0.003 C 
HETATM    9  C   UNK N   1     166.014 155.895 153.162  0.00  0.00     0.001 C 
HETATM   10  C   UNK N   1     165.799 156.535 154.541  0.00  0.00     0.009 C 
HETATM   11  C   UNK N   1     166.849 156.105 155.572  0.00  0.00     0.038 C 
HETATM   12  C   UNK N   1     166.326 156.321 156.984  0.00  0.00     0.133 C 
ENDROOT
BRANCH   1  13
HETATM   13  C   UNK N   1     167.624 158.235 158.846  0.00  0.00     0.073 A 
HETATM   14  C   UNK N   1     168.476 159.250 158.393  0.00  0.00     0.026 A 
HETATM   15  C   UNK N   1     167.940 160.556 158.554  0.00  0.00     0.018 A 
HETATM   16  C   UNK N   1     166.666 160.562 159.134  0.00  0.00     0.001 A 
HETATM   17  S   UNK N   1     166.250 158.987 159.423  0.00  0.00    -0.088 SA
BRANCH  16  18
HETATM   18  C   UNK N   1     165.838 161.769 159.439  0.00  0.00     0.168 C 
BRANCH  18  19
HETATM   19  N   UNK N   1     165.696 162.574 158.248  0.00  0.00    -0.357 N 
HETATM   20  C   UNK N   1     164.647 162.460 157.403  0.00  0.00     0.213 C 
HETATM   21  C   UNK N   1     164.582 163.334 156.199  0.00  0.00     0.117 C 
HETATM   22  O   UNK N   1     163.755 161.653 157.617  0.00  0.00    -0.274 OA
HETATM   23  H   UNK N   1     166.395 163.236 158.042  0.00  0.00     0.162 HD
ENDBRANCH  18  19
ENDBRANCH  16  18
ENDBRANCH   1  13
BRANCH   6  24
HETATM   24  O   UNK N   1     166.224 153.779 155.408  0.00  0.00    -0.389 OA
HETATM   25  H   UNK N   1     166.175 153.372 156.286  0.00  0.00     0.210 HD
ENDBRANCH   6  24
TORSDOF 4
ENDMDL
MODEL 9
REMARK VINA RESULT:      -5.3      5.298      9.759
REMARK  4 active torsions:
REMARK  status: ('A' for Active; 'I' for Inactive)
REMARK       I    between atoms: C_2  and  N_4 
REMARK    1  A    between atoms: N_4  and  C_5 
REMARK    2  A    between atoms: C_5  and  C_6 
REMARK    3  A    between atoms: C_9  and  C_10 
REMARK       I    between atoms: C_10  and  N_12 
REMARK    4  A    between atoms: C_15  and  O_16 
ROOT
HETATM    1  C   UNK N   1     162.331 155.828 158.415  0.00  0.00     0.260 C 
HETATM    2  O   UNK N   1     162.578 155.762 159.613  0.00  0.00    -0.267 OA
HETATM    3  N   UNK N   1     163.152 155.180 157.532  0.00  0.00    -0.347 N 
HETATM    4  C   UNK N   1     164.318 154.466 158.010  0.00  0.00     0.129 C 
HETATM    5  C   UNK N   1     165.573 155.122 157.429  0.00  0.00     0.058 C 
HETATM    6  C   UNK N   1     165.484 155.243 155.901  0.00  0.00     0.064 C 
HETATM    7  C   UNK N   1     166.675 156.081 155.413  0.00  0.00     0.038 C 
HETATM    8  C   UNK N   1     166.403 156.889 154.133  0.00  0.00     0.003 C 
HETATM    9  C   UNK N   1     165.347 156.233 153.243  0.00  0.00     0.001 C 
HETATM   10  C   UNK N   1     164.011 156.035 153.971  0.00  0.00     0.009 C 
HETATM   11  C   UNK N   1     164.166 155.933 155.493  0.00  0.00     0.038 C 
HETATM   12  C   UNK N   1     162.958 155.240 156.104  0.00  0.00     0.133 C 
ENDROOT
BRANCH   1  13
HETATM   13  C   UNK N   1     161.153 156.644 157.998  0.00  0.00     0.073 A 
HETATM   14  C   UNK N   1     159.831 156.191 158.096  0.00  0.00     0.026 A 
HETATM   15  C   UNK N   1     158.871 157.141 157.656  0.00  0.00     0.018 A 
HETATM   16  C   UNK N   1     159.443 158.339 157.213  0.00  0.00     0.001 A 
HETATM   17  S   UNK N   1     161.083 158.191 157.376  0.00  0.00    -0.088 SA
BRANCH  16  18
HETATM   18  C   UNK N   1     158.708 159.530 156.686  0.00  0.00     0.168 C 
BRANCH  18  19
HETATM   19  N   UNK N   1     157.912 159.143 155.544  0.00  0.00    -0.357 N 
HETATM   20  C   UNK N   1     156.561 159.146 155.553  0.00  0.00     0.213 C 
HETATM   21  C   UNK N   1     155.822 158.733 154.328  0.00  0.00     0.117 C 
HETATM   22  O   UNK N   1     155.942 159.484 156.550  0.00  0.00    -0.274 OA
HETATM   23  H   UNK N   1     158.376 158.864 154.721  0.00  0.00     0.162 HD
ENDBRANCH  18  19
ENDBRANCH  16  18
ENDBRANCH   1  13
BRANCH   6  24
HETATM   24  O   UNK N   1     165.554 153.965 155.334  0.00  0.00    -0.389 OA
HETATM   25  H   UNK N   1     165.339 154.017 154.391  0.00  0.00     0.210 HD
ENDBRANCH   6  24
TORSDOF 4
ENDMDL
