MODEL 1
REMARK VINA RESULT:      -5.6      0.000      0.000
REMARK  6 active torsions:
REMARK  status: ('A' for Active; 'I' for Inactive)
REMARK    1  A    between atoms: C_2  and  C_3 
REMARK       I    between atoms: C_2  and  N_14 
REMARK    2  A    between atoms: C_6  and  O_7 
REMARK    3  A    between atoms: O_7  and  C_8 
REMARK    4  A    between atoms: C_17  and  S_18 
REMARK    5  A    between atoms: S_18  and  N_21 
REMARK    6  A    between atoms: N_21  and  C_22 
ROOT
HETATM    1  O   UNK N   1     168.022 153.271 151.893  0.00  0.00    -0.267 OA
HETATM    2  C   UNK N   1     168.305 153.427 153.072  0.00  0.00     0.253 C 
HETATM    3  N   UNK N   1     168.102 154.656 153.650  0.00  0.00    -0.347 N 
HETATM    4  C   UNK N   1     168.536 155.002 154.969  0.00  0.00     0.127 C 
HETATM    5  C   UNK N   1     168.784 156.492 154.901  0.00  0.00     0.043 C 
HETATM    6  C   UNK N   1     167.921 156.996 153.751  0.00  0.00     0.143 C 
HETATM    7  C   UNK N   1     167.618 155.775 152.886  0.00  0.00     0.147 C 
ENDROOT
BRANCH   2   8
HETATM    8  C   UNK N   1     168.911 152.271 153.812  0.00  0.00     0.032 A 
HETATM    9  C   UNK N   1     168.133 151.578 154.755  0.00  0.00     0.020 A 
HETATM   10  C   UNK N   1     168.657 150.477 155.440  0.00  0.00     0.038 A 
HETATM   11  C   UNK N   1     169.974 150.071 155.214  0.00  0.00     0.078 A 
HETATM   12  C   UNK N   1     170.763 150.762 154.288  0.00  0.00     0.038 A 
HETATM   13  C   UNK N   1     170.230 151.846 153.588  0.00  0.00     0.020 A 
BRANCH  11  14
HETATM   14  O   UNK N   1     170.474 149.010 155.881  0.00  0.00    -0.255 OA
BRANCH  14  15
HETATM   15  C   UNK N   1     170.177 147.710 155.525  0.00  0.00     0.530 C 
HETATM   16  F   UNK N   1     171.285 146.909 155.745  0.00  0.00    -0.144 F 
HETATM   17  F   UNK N   1     169.133 147.255 156.305  0.00  0.00    -0.144 F 
HETATM   18  F   UNK N   1     169.811 147.632 154.192  0.00  0.00    -0.144 F 
ENDBRANCH  14  15
ENDBRANCH  11  14
ENDBRANCH   2   8
BRANCH   6  19
HETATM   19  S   UNK N   1     166.410 157.740 154.429  0.00  0.00     0.215 S 
HETATM   20  O   UNK N   1     165.916 158.866 153.507  0.00  0.00    -0.211 OA
HETATM   21  O   UNK N   1     166.590 158.491 155.760  0.00  0.00    -0.211 OA
BRANCH  19  22
HETATM   22  N   UNK N   1     164.982 156.698 154.581  0.00  0.00    -0.215 NA
HETATM   23  H   UNK N   1     164.936 156.045 153.800  0.00  0.00     0.140 HD
BRANCH  22  24
HETATM   24  C   UNK N   1     165.035 155.972 155.840  0.00  0.00     0.071 A 
HETATM   25  C   UNK N   1     164.946 154.481 155.581  0.00  0.00     0.022 A 
HETATM   26  C   UNK N   1     163.724 155.243 156.043  0.00  0.00     0.022 A 
ENDBRANCH  22  24
ENDBRANCH  19  22
ENDBRANCH   6  19
TORSDOF 6
ENDMDL
MODEL 2
REMARK VINA RESULT:      -5.6      5.103      6.902
REMARK  6 active torsions:
REMARK  status: ('A' for Active; 'I' for Inactive)
REMARK    1  A    between atoms: C_2  and  C_3 
REMARK       I    between atoms: C_2  and  N_14 
REMARK    2  A    between atoms: C_6  and  O_7 
REMARK    3  A    between atoms: O_7  and  C_8 
REMARK    4  A    between atoms: C_17  and  S_18 
REMARK    5  A    between atoms: S_18  and  N_21 
REMARK    6  A    between atoms: N_21  and  C_22 
ROOT
HETATM    1  O   UNK N   1     165.146 153.545 156.941  0.00  0.00    -0.267 OA
HETATM    2  C   UNK N   1     165.957 154.422 156.681  0.00  0.00     0.253 C 
HETATM    3  N   UNK N   1     166.358 155.276 157.677  0.00  0.00    -0.347 N 
HETATM    4  C   UNK N   1     167.178 156.430 157.461  0.00  0.00     0.127 C 
HETATM    5  C   UNK N   1     166.761 157.393 158.549  0.00  0.00     0.043 C 
HETATM    6  C   UNK N   1     166.179 156.525 159.658  0.00  0.00     0.143 C 
HETATM    7  C   UNK N   1     165.804 155.199 159.003  0.00  0.00     0.147 C 
ENDROOT
BRANCH   2   8
HETATM    8  C   UNK N   1     166.433 154.544 155.263  0.00  0.00     0.032 A 
HETATM    9  C   UNK N   1     165.890 155.549 154.444  0.00  0.00     0.020 A 
HETATM   10  C   UNK N   1     166.332 155.711 153.126  0.00  0.00     0.038 A 
HETATM   11  C   UNK N   1     167.300 154.853 152.600  0.00  0.00     0.078 A 
HETATM   12  C   UNK N   1     167.837 153.840 153.402  0.00  0.00     0.038 A 
HETATM   13  C   UNK N   1     167.412 153.695 154.723  0.00  0.00     0.020 A 
BRANCH  11  14
HETATM   14  O   UNK N   1     167.719 155.012 151.328  0.00  0.00    -0.255 OA
BRANCH  14  15
HETATM   15  C   UNK N   1     167.077 154.418 150.261  0.00  0.00     0.530 C 
HETATM   16  F   UNK N   1     165.774 154.880 150.194  0.00  0.00    -0.144 F 
HETATM   17  F   UNK N   1     167.732 154.755 149.093  0.00  0.00    -0.144 F 
HETATM   18  F   UNK N   1     167.069 153.040 150.392  0.00  0.00    -0.144 F 
ENDBRANCH  14  15
ENDBRANCH  11  14
ENDBRANCH   2   8
BRANCH   6  19
HETATM   19  S   UNK N   1     167.429 156.312 160.958  0.00  0.00     0.215 S 
HETATM   20  O   UNK N   1     168.170 154.979 160.764  0.00  0.00    -0.211 OA
HETATM   21  O   UNK N   1     166.872 156.148 162.382  0.00  0.00    -0.211 OA
BRANCH  19  22
HETATM   22  N   UNK N   1     168.752 157.493 161.023  0.00  0.00    -0.215 NA
HETATM   23  H   UNK N   1     168.818 157.897 161.957  0.00  0.00     0.140 HD
BRANCH  22  24
HETATM   24  C   UNK N   1     170.005 156.848 160.665  0.00  0.00     0.071 A 
HETATM   25  C   UNK N   1     170.990 156.960 161.812  0.00  0.00     0.022 A 
HETATM   26  C   UNK N   1     171.101 157.892 160.625  0.00  0.00     0.022 A 
ENDBRANCH  22  24
ENDBRANCH  19  22
ENDBRANCH   6  19
TORSDOF 6
ENDMDL
MODEL 3
REMARK VINA RESULT:      -5.5     12.756     14.638
REMARK  6 active torsions:
REMARK  status: ('A' for Active; 'I' for Inactive)
REMARK    1  A    between atoms: C_2  and  C_3 
REMARK       I    between atoms: C_2  and  N_14 
REMARK    2  A    between atoms: C_6  and  O_7 
REMARK    3  A    between atoms: O_7  and  C_8 
REMARK    4  A    between atoms: C_17  and  S_18 
REMARK    5  A    between atoms: S_18  and  N_21 
REMARK    6  A    between atoms: N_21  and  C_22 
ROOT
HETATM    1  O   UNK N   1     157.107 149.225 156.137  0.00  0.00    -0.267 OA
HETATM    2  C   UNK N   1     156.960 148.011 156.141  0.00  0.00     0.253 C 
HETATM    3  N   UNK N   1     157.470 147.281 157.186  0.00  0.00    -0.347 N 
HETATM    4  C   UNK N   1     157.496 145.850 157.225  0.00  0.00     0.127 C 
HETATM    5  C   UNK N   1     158.705 145.524 158.073  0.00  0.00     0.043 C 
HETATM    6  C   UNK N   1     158.935 146.752 158.944  0.00  0.00     0.143 C 
HETATM    7  C   UNK N   1     158.220 147.904 158.244  0.00  0.00     0.147 C 
ENDROOT
BRANCH   2   8
HETATM    8  C   UNK N   1     156.269 147.380 154.968  0.00  0.00     0.032 A 
HETATM    9  C   UNK N   1     157.042 146.778 153.962  0.00  0.00     0.020 A 
HETATM   10  C   UNK N   1     156.430 146.154 152.869  0.00  0.00     0.038 A 
HETATM   11  C   UNK N   1     155.039 146.150 152.753  0.00  0.00     0.078 A 
HETATM   12  C   UNK N   1     154.259 146.760 153.742  0.00  0.00     0.038 A 
HETATM   13  C   UNK N   1     154.871 147.361 154.842  0.00  0.00     0.020 A 
BRANCH  11  14
HETATM   14  O   UNK N   1     154.454 145.550 151.695  0.00  0.00    -0.255 OA
BRANCH  14  15
HETATM   15  C   UNK N   1     154.734 145.915 150.394  0.00  0.00     0.530 C 
HETATM   16  F   UNK N   1     153.909 145.213 149.533  0.00  0.00    -0.144 F 
HETATM   17  F   UNK N   1     154.496 147.266 150.241  0.00  0.00    -0.144 F 
HETATM   18  F   UNK N   1     156.056 145.652 150.080  0.00  0.00    -0.144 F 
ENDBRANCH  14  15
ENDBRANCH  11  14
ENDBRANCH   2   8
BRANCH   6  19
HETATM   19  S   UNK N   1     158.257 146.438 160.599  0.00  0.00     0.215 S 
HETATM   20  O   UNK N   1     158.397 144.949 160.953  0.00  0.00    -0.211 OA
HETATM   21  O   UNK N   1     156.739 146.643 160.736  0.00  0.00    -0.211 OA
BRANCH  19  22
HETATM   22  N   UNK N   1     159.040 147.245 161.972  0.00  0.00    -0.215 NA
HETATM   23  H   UNK N   1     158.392 147.316 162.756  0.00  0.00     0.140 HD
BRANCH  22  24
HETATM   24  C   UNK N   1     160.227 146.504 162.366  0.00  0.00     0.071 A 
HETATM   25  C   UNK N   1     161.035 147.314 163.362  0.00  0.00     0.022 A 
HETATM   26  C   UNK N   1     161.456 147.262 161.910  0.00  0.00     0.022 A 
ENDBRANCH  22  24
ENDBRANCH  19  22
ENDBRANCH   6  19
TORSDOF 6
ENDMDL
MODEL 4
REMARK VINA RESULT:      -5.4      2.266      3.005
REMARK  6 active torsions:
REMARK  status: ('A' for Active; 'I' for Inactive)
REMARK    1  A    between atoms: C_2  and  C_3 
REMARK       I    between atoms: C_2  and  N_14 
REMARK    2  A    between atoms: C_6  and  O_7 
REMARK    3  A    between atoms: O_7  and  C_8 
REMARK    4  A    between atoms: C_17  and  S_18 
REMARK    5  A    between atoms: S_18  and  N_21 
REMARK    6  A    between atoms: N_21  and  C_22 
ROOT
HETATM    1  O   UNK N   1     169.666 155.676 153.478  0.00  0.00    -0.267 OA
HETATM    2  C   UNK N   1     168.841 154.824 153.776  0.00  0.00     0.253 C 
HETATM    3  N   UNK N   1     167.796 155.167 154.597  0.00  0.00    -0.347 N 
HETATM    4  C   UNK N   1     166.861 154.227 155.138  0.00  0.00     0.127 C 
HETATM    5  C   UNK N   1     166.428 154.845 156.449  0.00  0.00     0.043 C 
HETATM    6  C   UNK N   1     166.672 156.341 156.294  0.00  0.00     0.143 C 
HETATM    7  C   UNK N   1     167.681 156.487 155.158  0.00  0.00     0.147 C 
ENDROOT
BRANCH   2   8
HETATM    8  C   UNK N   1     169.050 153.429 153.264  0.00  0.00     0.032 A 
HETATM    9  C   UNK N   1     168.409 153.033 152.078  0.00  0.00     0.020 A 
HETATM   10  C   UNK N   1     168.605 151.750 151.556  0.00  0.00     0.038 A 
HETATM   11  C   UNK N   1     169.421 150.837 152.227  0.00  0.00     0.078 A 
HETATM   12  C   UNK N   1     170.053 151.215 153.416  0.00  0.00     0.038 A 
HETATM   13  C   UNK N   1     169.874 152.504 153.923  0.00  0.00     0.020 A 
BRANCH  11  14
HETATM   14  O   UNK N   1     169.604 149.600 151.720  0.00  0.00    -0.255 OA
BRANCH  14  15
HETATM   15  C   UNK N   1     168.949 148.494 152.223  0.00  0.00     0.530 C 
HETATM   16  F   UNK N   1     167.962 148.904 153.103  0.00  0.00    -0.144 F 
HETATM   17  F   UNK N   1     168.362 147.804 151.182  0.00  0.00    -0.144 F 
HETATM   18  F   UNK N   1     169.830 147.653 152.881  0.00  0.00    -0.144 F 
ENDBRANCH  14  15
ENDBRANCH  11  14
ENDBRANCH   2   8
BRANCH   6  19
HETATM   19  S   UNK N   1     165.096 157.159 155.912  0.00  0.00     0.215 S 
HETATM   20  O   UNK N   1     165.341 158.631 155.544  0.00  0.00    -0.211 OA
HETATM   21  O   UNK N   1     164.126 157.297 157.097  0.00  0.00    -0.211 OA
BRANCH  19  22
HETATM   22  N   UNK N   1     164.175 156.553 154.522  0.00  0.00    -0.215 NA
HETATM   23  H   UNK N   1     163.184 156.767 154.634  0.00  0.00     0.140 HD
BRANCH  22  24
HETATM   24  C   UNK N   1     164.683 157.149 153.297  0.00  0.00     0.071 A 
HETATM   25  C   UNK N   1     163.920 156.607 152.104  0.00  0.00     0.022 A 
HETATM   26  C   UNK N   1     165.292 156.063 152.437  0.00  0.00     0.022 A 
ENDBRANCH  22  24
ENDBRANCH  19  22
ENDBRANCH   6  19
TORSDOF 6
ENDMDL
MODEL 5
REMARK VINA RESULT:      -5.4      5.751      8.808
REMARK  6 active torsions:
REMARK  status: ('A' for Active; 'I' for Inactive)
REMARK    1  A    between atoms: C_2  and  C_3 
REMARK       I    between atoms: C_2  and  N_14 
REMARK    2  A    between atoms: C_6  and  O_7 
REMARK    3  A    between atoms: O_7  and  C_8 
REMARK    4  A    between atoms: C_17  and  S_18 
REMARK    5  A    between atoms: S_18  and  N_21 
REMARK    6  A    between atoms: N_21  and  C_22 
ROOT
HETATM    1  O   UNK N   1     164.445 152.651 156.964  0.00  0.00    -0.267 OA
HETATM    2  C   UNK N   1     164.527 153.843 156.706  0.00  0.00     0.253 C 
HETATM    3  N   UNK N   1     165.617 154.301 156.008  0.00  0.00    -0.347 N 
HETATM    4  C   UNK N   1     165.899 155.687 155.784  0.00  0.00     0.127 C 
HETATM    5  C   UNK N   1     167.407 155.747 155.684  0.00  0.00     0.043 C 
HETATM    6  C   UNK N   1     167.843 154.350 155.262  0.00  0.00     0.143 C 
HETATM    7  C   UNK N   1     166.688 153.421 155.624  0.00  0.00     0.147 C 
ENDROOT
BRANCH   2   8
HETATM    8  C   UNK N   1     163.447 154.751 157.217  0.00  0.00     0.032 A 
HETATM    9  C   UNK N   1     163.472 155.154 158.562  0.00  0.00     0.020 A 
HETATM   10  C   UNK N   1     162.498 156.024 159.064  0.00  0.00     0.038 A 
HETATM   11  C   UNK N   1     161.470 156.479 158.235  0.00  0.00     0.078 A 
HETATM   12  C   UNK N   1     161.427 156.073 156.897  0.00  0.00     0.038 A 
HETATM   13  C   UNK N   1     162.413 155.224 156.393  0.00  0.00     0.020 A 
BRANCH  11  14
HETATM   14  O   UNK N   1     160.531 157.315 158.726  0.00  0.00    -0.255 OA
BRANCH  14  15
HETATM   15  C   UNK N   1     159.321 156.862 159.209  0.00  0.00     0.530 C 
HETATM   16  F   UNK N   1     158.464 156.618 158.150  0.00  0.00    -0.144 F 
HETATM   17  F   UNK N   1     159.523 155.685 159.902  0.00  0.00    -0.144 F 
HETATM   18  F   UNK N   1     158.747 157.792 160.059  0.00  0.00    -0.144 F 
ENDBRANCH  14  15
ENDBRANCH  11  14
ENDBRANCH   2   8
BRANCH   6  19
HETATM   19  S   UNK N   1     168.181 154.351 153.478  0.00  0.00     0.215 S 
HETATM   20  O   UNK N   1     169.528 155.035 153.195  0.00  0.00    -0.211 OA
HETATM   21  O   UNK N   1     167.222 155.203 152.629  0.00  0.00    -0.211 OA
BRANCH  19  22
HETATM   22  N   UNK N   1     168.362 152.777 152.678  0.00  0.00    -0.215 NA
HETATM   23  H   UNK N   1     168.574 152.906 151.689  0.00  0.00     0.140 HD
BRANCH  22  24
HETATM   24  C   UNK N   1     169.420 152.016 153.324  0.00  0.00     0.071 A 
HETATM   25  C   UNK N   1     169.582 150.673 152.640  0.00  0.00     0.022 A 
HETATM   26  C   UNK N   1     168.822 150.771 153.945  0.00  0.00     0.022 A 
ENDBRANCH  22  24
ENDBRANCH  19  22
ENDBRANCH   6  19
TORSDOF 6
ENDMDL
MODEL 6
REMARK VINA RESULT:      -5.3     13.038     14.940
REMARK  6 active torsions:
REMARK  status: ('A' for Active; 'I' for Inactive)
REMARK    1  A    between atoms: C_2  and  C_3 
REMARK       I    between atoms: C_2  and  N_14 
REMARK    2  A    between atoms: C_6  and  O_7 
REMARK    3  A    between atoms: O_7  and  C_8 
REMARK    4  A    between atoms: C_17  and  S_18 
REMARK    5  A    between atoms: S_18  and  N_21 
REMARK    6  A    between atoms: N_21  and  C_22 
ROOT
HETATM    1  O   UNK N   1     157.177 149.058 156.250  0.00  0.00    -0.267 OA
HETATM    2  C   UNK N   1     157.008 147.847 156.221  0.00  0.00     0.253 C 
HETATM    3  N   UNK N   1     157.482 147.083 157.258  0.00  0.00    -0.347 N 
HETATM    4  C   UNK N   1     157.482 145.651 157.262  0.00  0.00     0.127 C 
HETATM    5  C   UNK N   1     158.666 145.281 158.127  0.00  0.00     0.043 C 
HETATM    6  C   UNK N   1     158.899 146.484 159.032  0.00  0.00     0.143 C 
HETATM    7  C   UNK N   1     158.220 147.666 158.346  0.00  0.00     0.147 C 
ENDROOT
BRANCH   2   8
HETATM    8  C   UNK N   1     156.332 147.258 155.018  0.00  0.00     0.032 A 
HETATM    9  C   UNK N   1     157.114 146.648 154.023  0.00  0.00     0.020 A 
HETATM   10  C   UNK N   1     156.514 146.063 152.903  0.00  0.00     0.038 A 
HETATM   11  C   UNK N   1     155.127 146.105 152.748  0.00  0.00     0.078 A 
HETATM   12  C   UNK N   1     154.339 146.722 153.725  0.00  0.00     0.038 A 
HETATM   13  C   UNK N   1     154.938 147.285 154.853  0.00  0.00     0.020 A 
BRANCH  11  14
HETATM   14  O   UNK N   1     154.554 145.541 151.664  0.00  0.00    -0.255 OA
BRANCH  14  15
HETATM   15  C   UNK N   1     154.802 145.990 150.383  0.00  0.00     0.530 C 
HETATM   16  F   UNK N   1     153.950 145.351 149.499  0.00  0.00    -0.144 F 
HETATM   17  F   UNK N   1     154.568 147.350 150.326  0.00  0.00    -0.144 F 
HETATM   18  F   UNK N   1     156.114 145.744 150.016  0.00  0.00    -0.144 F 
ENDBRANCH  14  15
ENDBRANCH  11  14
ENDBRANCH   2   8
BRANCH   6  19
HETATM   19  S   UNK N   1     158.180 146.141 160.665  0.00  0.00     0.215 S 
HETATM   20  O   UNK N   1     159.108 146.665 161.771  0.00  0.00    -0.211 OA
HETATM   21  O   UNK N   1     158.074 144.652 161.034  0.00  0.00    -0.211 OA
BRANCH  19  22
HETATM   22  N   UNK N   1     156.628 146.910 161.053  0.00  0.00    -0.215 NA
HETATM   23  H   UNK N   1     156.603 147.861 160.685  0.00  0.00     0.140 HD
BRANCH  22  24
HETATM   24  C   UNK N   1     155.538 146.126 160.495  0.00  0.00     0.071 A 
HETATM   25  C   UNK N   1     154.653 147.010 159.637  0.00  0.00     0.022 A 
HETATM   26  C   UNK N   1     154.227 146.647 161.043  0.00  0.00     0.022 A 
ENDBRANCH  22  24
ENDBRANCH  19  22
ENDBRANCH   6  19
TORSDOF 6
ENDMDL
MODEL 7
REMARK VINA RESULT:      -5.3      8.579     11.749
REMARK  6 active torsions:
REMARK  status: ('A' for Active; 'I' for Inactive)
REMARK    1  A    between atoms: C_2  and  C_3 
REMARK       I    between atoms: C_2  and  N_14 
REMARK    2  A    between atoms: C_6  and  O_7 
REMARK    3  A    between atoms: O_7  and  C_8 
REMARK    4  A    between atoms: C_17  and  S_18 
REMARK    5  A    between atoms: S_18  and  N_21 
REMARK    6  A    between atoms: N_21  and  C_22 
ROOT
HETATM    1  O   UNK N   1     163.468 159.142 156.533  0.00  0.00    -0.267 OA
HETATM    2  C   UNK N   1     162.530 158.360 156.594  0.00  0.00     0.253 C 
HETATM    3  N   UNK N   1     162.782 157.011 156.538  0.00  0.00    -0.347 N 
HETATM    4  C   UNK N   1     161.762 156.010 156.444  0.00  0.00     0.127 C 
HETATM    5  C   UNK N   1     162.425 154.874 155.699  0.00  0.00     0.043 C 
HETATM    6  C   UNK N   1     163.919 155.046 155.940  0.00  0.00     0.143 C 
HETATM    7  C   UNK N   1     164.114 156.501 156.354  0.00  0.00     0.147 C 
ENDROOT
BRANCH   2   8
HETATM    8  C   UNK N   1     161.143 158.926 156.675  0.00  0.00     0.032 A 
HETATM    9  C   UNK N   1     160.617 159.609 155.565  0.00  0.00     0.020 A 
HETATM   10  C   UNK N   1     159.316 160.123 155.596  0.00  0.00     0.038 A 
HETATM   11  C   UNK N   1     158.535 159.989 156.745  0.00  0.00     0.078 A 
HETATM   12  C   UNK N   1     159.054 159.325 157.862  0.00  0.00     0.038 A 
HETATM   13  C   UNK N   1     160.343 158.792 157.821  0.00  0.00     0.020 A 
BRANCH  11  14
HETATM   14  O   UNK N   1     157.283 160.491 156.770  0.00  0.00    -0.255 OA
BRANCH  14  15
HETATM   15  C   UNK N   1     156.989 161.709 157.348  0.00  0.00     0.530 C 
HETATM   16  F   UNK N   1     156.482 161.505 158.619  0.00  0.00    -0.144 F 
HETATM   17  F   UNK N   1     158.145 162.457 157.441  0.00  0.00    -0.144 F 
HETATM   18  F   UNK N   1     156.063 162.406 156.590  0.00  0.00    -0.144 F 
ENDBRANCH  14  15
ENDBRANCH  11  14
ENDBRANCH   2   8
BRANCH   6  19
HETATM   19  S   UNK N   1     164.444 153.893 157.242  0.00  0.00     0.215 S 
HETATM   20  O   UNK N   1     165.899 154.178 157.645  0.00  0.00    -0.211 OA
HETATM   21  O   UNK N   1     164.527 152.417 156.815  0.00  0.00    -0.211 OA
BRANCH  19  22
HETATM   22  N   UNK N   1     163.583 153.963 158.792  0.00  0.00    -0.215 NA
HETATM   23  H   UNK N   1     163.503 153.029 159.194  0.00  0.00     0.140 HD
BRANCH  22  24
HETATM   24  C   UNK N   1     164.291 154.844 159.707  0.00  0.00     0.071 A 
HETATM   25  C   UNK N   1     163.518 154.968 161.006  0.00  0.00     0.022 A 
HETATM   26  C   UNK N   1     163.439 156.068 159.970  0.00  0.00     0.022 A 
ENDBRANCH  22  24
ENDBRANCH  19  22
ENDBRANCH   6  19
TORSDOF 6
ENDMDL
MODEL 8
REMARK VINA RESULT:      -5.3      6.574      9.514
REMARK  6 active torsions:
REMARK  status: ('A' for Active; 'I' for Inactive)
REMARK    1  A    between atoms: C_2  and  C_3 
REMARK       I    between atoms: C_2  and  N_14 
REMARK    2  A    between atoms: C_6  and  O_7 
REMARK    3  A    between atoms: O_7  and  C_8 
REMARK    4  A    between atoms: C_17  and  S_18 
REMARK    5  A    between atoms: S_18  and  N_21 
REMARK    6  A    between atoms: N_21  and  C_22 
ROOT
HETATM    1  O   UNK N   1     165.863 159.486 154.645  0.00  0.00    -0.267 OA
HETATM    2  C   UNK N   1     166.182 158.724 155.546  0.00  0.00     0.253 C 
HETATM    3  N   UNK N   1     166.595 157.453 155.230  0.00  0.00    -0.347 N 
HETATM    4  C   UNK N   1     166.844 156.428 156.198  0.00  0.00     0.127 C 
HETATM    5  C   UNK N   1     166.539 155.142 155.464  0.00  0.00     0.043 C 
HETATM    6  C   UNK N   1     166.717 155.465 153.986  0.00  0.00     0.143 C 
HETATM    7  C   UNK N   1     166.607 156.982 153.871  0.00  0.00     0.147 C 
ENDROOT
BRANCH   2   8
HETATM    8  C   UNK N   1     166.054 159.210 156.960  0.00  0.00     0.032 A 
HETATM    9  C   UNK N   1     167.123 159.911 157.542  0.00  0.00     0.020 A 
HETATM   10  C   UNK N   1     167.025 160.405 158.847  0.00  0.00     0.038 A 
HETATM   11  C   UNK N   1     165.870 160.178 159.598  0.00  0.00     0.078 A 
HETATM   12  C   UNK N   1     164.805 159.468 159.035  0.00  0.00     0.038 A 
HETATM   13  C   UNK N   1     164.895 158.998 157.724  0.00  0.00     0.020 A 
BRANCH  11  14
HETATM   14  O   UNK N   1     165.783 160.653 160.858  0.00  0.00    -0.255 OA
BRANCH  14  15
HETATM   15  C   UNK N   1     164.967 161.715 161.190  0.00  0.00     0.530 C 
HETATM   16  F   UNK N   1     165.006 162.659 160.178  0.00  0.00    -0.144 F 
HETATM   17  F   UNK N   1     163.670 161.263 161.331  0.00  0.00    -0.144 F 
HETATM   18  F   UNK N   1     165.371 162.299 162.378  0.00  0.00    -0.144 F 
ENDBRANCH  14  15
ENDBRANCH  11  14
ENDBRANCH   2   8
BRANCH   6  19
HETATM   19  S   UNK N   1     168.339 154.858 153.440  0.00  0.00     0.215 S 
HETATM   20  O   UNK N   1     169.336 156.023 153.350  0.00  0.00    -0.211 OA
HETATM   21  O   UNK N   1     168.383 154.305 152.006  0.00  0.00    -0.211 OA
BRANCH  19  22
HETATM   22  N   UNK N   1     169.177 153.702 154.494  0.00  0.00    -0.215 NA
HETATM   23  H   UNK N   1     168.895 153.840 155.465  0.00  0.00     0.140 HD
BRANCH  22  24
HETATM   24  C   UNK N   1     168.876 152.343 154.072  0.00  0.00     0.071 A 
HETATM   25  C   UNK N   1     169.485 151.353 155.044  0.00  0.00     0.022 A 
HETATM   26  C   UNK N   1     170.169 151.637 153.725  0.00  0.00     0.022 A 
ENDBRANCH  22  24
ENDBRANCH  19  22
ENDBRANCH   6  19
TORSDOF 6
ENDMDL
MODEL 9
REMARK VINA RESULT:      -5.3      2.579      3.348
REMARK  6 active torsions:
REMARK  status: ('A' for Active; 'I' for Inactive)
REMARK    1  A    between atoms: C_2  and  C_3 
REMARK       I    between atoms: C_2  and  N_14 
REMARK    2  A    between atoms: C_6  and  O_7 
REMARK    3  A    between atoms: O_7  and  C_8 
REMARK    4  A    between atoms: C_17  and  S_18 
REMARK    5  A    between atoms: S_18  and  N_21 
REMARK    6  A    between atoms: N_21  and  C_22 
ROOT
HETATM    1  O   UNK N   1     169.443 155.964 153.154  0.00  0.00    -0.267 OA
HETATM    2  C   UNK N   1     168.606 155.128 153.463  0.00  0.00     0.253 C 
HETATM    3  N   UNK N   1     167.507 155.519 154.185  0.00  0.00    -0.347 N 
HETATM    4  C   UNK N   1     166.545 154.612 154.735  0.00  0.00     0.127 C 
HETATM    5  C   UNK N   1     166.023 155.322 155.963  0.00  0.00     0.043 C 
HETATM    6  C   UNK N   1     166.266 156.804 155.710  0.00  0.00     0.143 C 
HETATM    7  C   UNK N   1     167.346 156.876 154.635  0.00  0.00     0.147 C 
ENDROOT
BRANCH   2   8
HETATM    8  C   UNK N   1     168.859 153.701 153.073  0.00  0.00     0.032 A 
HETATM    9  C   UNK N   1     169.680 152.904 153.889  0.00  0.00     0.020 A 
HETATM   10  C   UNK N   1     169.912 151.562 153.572  0.00  0.00     0.038 A 
HETATM   11  C   UNK N   1     169.351 151.005 152.420  0.00  0.00     0.078 A 
HETATM   12  C   UNK N   1     168.543 151.793 151.593  0.00  0.00     0.038 A 
HETATM   13  C   UNK N   1     168.294 153.126 151.924  0.00  0.00     0.020 A 
BRANCH  11  14
HETATM   14  O   UNK N   1     169.581 149.711 152.118  0.00  0.00    -0.255 OA
BRANCH  14  15
HETATM   15  C   UNK N   1     168.713 148.703 152.485  0.00  0.00     0.530 C 
HETATM   16  F   UNK N   1     167.913 148.370 151.405  0.00  0.00    -0.144 F 
HETATM   17  F   UNK N   1     169.441 147.593 152.863  0.00  0.00    -0.144 F 
HETATM   18  F   UNK N   1     167.914 149.099 153.544  0.00  0.00    -0.144 F 
ENDBRANCH  14  15
ENDBRANCH  11  14
ENDBRANCH   2   8
BRANCH   6  19
HETATM   19  S   UNK N   1     164.713 157.572 155.165  0.00  0.00     0.215 S 
HETATM   20  O   UNK N   1     163.598 156.517 155.096  0.00  0.00    -0.211 OA
HETATM   21  O   UNK N   1     164.717 158.107 153.723  0.00  0.00    -0.211 OA
BRANCH  19  22
HETATM   22  N   UNK N   1     164.008 158.823 156.207  0.00  0.00    -0.215 NA
HETATM   23  H   UNK N   1     163.197 158.455 156.703  0.00  0.00     0.140 HD
BRANCH  22  24
HETATM   24  C   UNK N   1     165.006 159.292 157.156  0.00  0.00     0.071 A 
HETATM   25  C   UNK N   1     164.323 159.924 158.353  0.00  0.00     0.022 A 
HETATM   26  C   UNK N   1     164.909 160.799 157.267  0.00  0.00     0.022 A 
ENDBRANCH  22  24
ENDBRANCH  19  22
ENDBRANCH   6  19
TORSDOF 6
ENDMDL
