MODEL 1
REMARK VINA RESULT:      -6.1      0.000      0.000
REMARK  7 active torsions:
REMARK  status: ('A' for Active; 'I' for Inactive)
REMARK    1  A    between atoms: C_2  and  C_3 
REMARK       I    between atoms: C_2  and  N_12 
REMARK    2  A    between atoms: C_3  and  C_4 
REMARK    3  A    between atoms: C_4  and  C_5 
REMARK    4  A    between atoms: C_10  and  O_11 
REMARK    5  A    between atoms: C_15  and  S_16 
REMARK    6  A    between atoms: S_16  and  N_19 
REMARK    7  A    between atoms: N_19  and  C_20 
ROOT
HETATM    1  O   UNK N   1     165.752 159.627 155.003  0.00  0.00    -0.273 OA
HETATM    2  C   UNK N   1     166.413 158.770 155.571  0.00  0.00     0.220 C 
HETATM    3  N   UNK N   1     166.634 157.571 154.964  0.00  0.00    -0.351 N 
HETATM    4  C   UNK N   1     166.047 157.247 153.696  0.00  0.00     0.127 C 
HETATM    5  C   UNK N   1     166.127 155.734 153.630  0.00  0.00     0.043 C 
HETATM    6  C   UNK N   1     167.237 155.336 154.596  0.00  0.00     0.143 C 
HETATM    7  C   UNK N   1     167.364 156.498 155.575  0.00  0.00     0.147 C 
ENDROOT
BRANCH   2   8
HETATM    8  C   UNK N   1     166.940 159.032 156.963  0.00  0.00     0.108 C 
BRANCH   8   9
HETATM    9  C   UNK N   1     167.279 160.504 157.213  0.00  0.00     0.051 C 
BRANCH   9  10
HETATM   10  C   UNK N   1     166.150 161.227 157.893  0.00  0.00    -0.025 A 
HETATM   11  C   UNK N   1     165.870 160.972 159.242  0.00  0.00     0.010 A 
HETATM   12  C   UNK N   1     164.824 161.643 159.885  0.00  0.00     0.001 A 
HETATM   13  C   UNK N   1     164.053 162.573 159.181  0.00  0.00     0.003 A 
HETATM   14  C   UNK N   1     164.330 162.834 157.837  0.00  0.00     0.037 A 
HETATM   15  C   UNK N   1     165.375 162.167 157.190  0.00  0.00     0.071 A 
BRANCH  15  16
HETATM   16  O   UNK N   1     165.627 162.431 155.896  0.00  0.00    -0.360 OA
HETATM   17  H   UNK N   1     166.214 161.885 155.412  0.00  0.00     0.217 HD
ENDBRANCH  15  16
ENDBRANCH   9  10
ENDBRANCH   8   9
ENDBRANCH   2   8
BRANCH   6  18
HETATM   18  S   UNK N   1     168.768 155.092 153.644  0.00  0.00     0.215 S 
HETATM   19  O   UNK N   1     168.447 154.803 152.170  0.00  0.00    -0.211 OA
HETATM   20  O   UNK N   1     169.665 156.338 153.526  0.00  0.00    -0.211 OA
BRANCH  18  21
HETATM   21  N   UNK N   1     169.808 153.729 154.108  0.00  0.00    -0.215 NA
HETATM   22  H   UNK N   1     169.867 153.661 155.123  0.00  0.00     0.140 HD
BRANCH  21  23
HETATM   23  C   UNK N   1     169.287 152.487 153.552  0.00  0.00     0.071 A 
HETATM   24  C   UNK N   1     169.910 151.292 154.253  0.00  0.00     0.022 A 
HETATM   25  C   UNK N   1     168.521 151.753 154.633  0.00  0.00     0.022 A 
ENDBRANCH  21  23
ENDBRANCH  18  21
ENDBRANCH   6  18
TORSDOF 7
ENDMDL
MODEL 2
REMARK VINA RESULT:      -6.0      3.485      8.875
REMARK  7 active torsions:
REMARK  status: ('A' for Active; 'I' for Inactive)
REMARK    1  A    between atoms: C_2  and  C_3 
REMARK       I    between atoms: C_2  and  N_12 
REMARK    2  A    between atoms: C_3  and  C_4 
REMARK    3  A    between atoms: C_4  and  C_5 
REMARK    4  A    between atoms: C_10  and  O_11 
REMARK    5  A    between atoms: C_15  and  S_16 
REMARK    6  A    between atoms: S_16  and  N_19 
REMARK    7  A    between atoms: N_19  and  C_20 
ROOT
HETATM    1  O   UNK N   1     166.313 152.661 156.049  0.00  0.00    -0.273 OA
HETATM    2  C   UNK N   1     166.741 153.448 155.216  0.00  0.00     0.220 C 
HETATM    3  N   UNK N   1     166.011 154.550 154.888  0.00  0.00    -0.351 N 
HETATM    4  C   UNK N   1     164.708 154.784 155.438  0.00  0.00     0.127 C 
HETATM    5  C   UNK N   1     164.081 155.784 154.484  0.00  0.00     0.043 C 
HETATM    6  C   UNK N   1     165.246 156.467 153.777  0.00  0.00     0.143 C 
HETATM    7  C   UNK N   1     166.420 155.500 153.894  0.00  0.00     0.147 C 
ENDROOT
BRANCH   2   8
HETATM    8  C   UNK N   1     168.054 153.163 154.523  0.00  0.00     0.108 C 
BRANCH   8   9
HETATM    9  C   UNK N   1     168.887 152.088 155.226  0.00  0.00     0.051 C 
BRANCH   9  10
HETATM   10  C   UNK N   1     168.942 150.817 154.427  0.00  0.00    -0.025 A 
HETATM   11  C   UNK N   1     169.924 150.653 153.441  0.00  0.00     0.010 A 
HETATM   12  C   UNK N   1     169.985 149.471 152.696  0.00  0.00     0.001 A 
HETATM   13  C   UNK N   1     169.065 148.446 152.932  0.00  0.00     0.003 A 
HETATM   14  C   UNK N   1     168.085 148.602 153.916  0.00  0.00     0.037 A 
HETATM   15  C   UNK N   1     168.020 149.781 154.665  0.00  0.00     0.071 A 
BRANCH  15  16
HETATM   16  O   UNK N   1     167.071 149.913 155.609  0.00  0.00    -0.360 OA
HETATM   17  H   UNK N   1     167.248 149.654 156.491  0.00  0.00     0.217 HD
ENDBRANCH  15  16
ENDBRANCH   9  10
ENDBRANCH   8   9
ENDBRANCH   2   8
BRANCH   6  18
HETATM   18  S   UNK N   1     165.589 158.041 154.621  0.00  0.00     0.215 S 
HETATM   19  O   UNK N   1     165.805 159.166 153.598  0.00  0.00    -0.211 OA
HETATM   20  O   UNK N   1     164.420 158.601 155.452  0.00  0.00    -0.211 OA
BRANCH  18  21
HETATM   21  N   UNK N   1     167.049 158.125 155.629  0.00  0.00    -0.215 NA
HETATM   22  H   UNK N   1     167.357 159.092 155.723  0.00  0.00     0.140 HD
BRANCH  21  23
HETATM   23  C   UNK N   1     166.787 157.553 156.943  0.00  0.00     0.071 A 
HETATM   24  C   UNK N   1     167.825 156.495 157.275  0.00  0.00     0.022 A 
HETATM   25  C   UNK N   1     167.948 157.884 157.858  0.00  0.00     0.022 A 
ENDBRANCH  21  23
ENDBRANCH  18  21
ENDBRANCH   6  18
TORSDOF 7
ENDMDL
MODEL 3
REMARK VINA RESULT:      -6.0      2.979      3.392
REMARK  7 active torsions:
REMARK  status: ('A' for Active; 'I' for Inactive)
REMARK    1  A    between atoms: C_2  and  C_3 
REMARK       I    between atoms: C_2  and  N_12 
REMARK    2  A    between atoms: C_3  and  C_4 
REMARK    3  A    between atoms: C_4  and  C_5 
REMARK    4  A    between atoms: C_10  and  O_11 
REMARK    5  A    between atoms: C_15  and  S_16 
REMARK    6  A    between atoms: S_16  and  N_19 
REMARK    7  A    between atoms: N_19  and  C_20 
ROOT
HETATM    1  O   UNK N   1     165.757 159.263 155.149  0.00  0.00    -0.273 OA
HETATM    2  C   UNK N   1     165.761 158.606 156.180  0.00  0.00     0.220 C 
HETATM    3  N   UNK N   1     164.903 157.558 156.318  0.00  0.00    -0.351 N 
HETATM    4  C   UNK N   1     163.929 157.241 155.314  0.00  0.00     0.127 C 
HETATM    5  C   UNK N   1     162.913 156.384 156.044  0.00  0.00     0.043 C 
HETATM    6  C   UNK N   1     163.646 155.814 157.254  0.00  0.00     0.143 C 
HETATM    7  C   UNK N   1     164.815 156.760 157.508  0.00  0.00     0.147 C 
ENDROOT
BRANCH   2   8
HETATM    8  C   UNK N   1     166.687 158.992 157.310  0.00  0.00     0.108 C 
BRANCH   8   9
HETATM    9  C   UNK N   1     167.144 160.452 157.244  0.00  0.00     0.051 C 
BRANCH   9  10
HETATM   10  C   UNK N   1     166.136 161.378 157.866  0.00  0.00    -0.025 A 
HETATM   11  C   UNK N   1     165.974 161.401 159.258  0.00  0.00     0.010 A 
HETATM   12  C   UNK N   1     165.042 162.263 159.845  0.00  0.00     0.001 A 
HETATM   13  C   UNK N   1     164.268 163.106 159.045  0.00  0.00     0.003 A 
HETATM   14  C   UNK N   1     164.427 163.091 157.656  0.00  0.00     0.037 A 
HETATM   15  C   UNK N   1     165.358 162.232 157.064  0.00  0.00     0.071 A 
BRANCH  15  16
HETATM   16  O   UNK N   1     165.499 162.232 155.727  0.00  0.00    -0.360 OA
HETATM   17  H   UNK N   1     164.980 162.807 155.200  0.00  0.00     0.217 HD
ENDBRANCH  15  16
ENDBRANCH   9  10
ENDBRANCH   8   9
ENDBRANCH   2   8
BRANCH   6  18
HETATM   18  S   UNK N   1     164.219 154.137 156.842  0.00  0.00     0.215 S 
HETATM   19  O   UNK N   1     163.968 153.179 158.016  0.00  0.00    -0.211 OA
HETATM   20  O   UNK N   1     163.443 153.445 155.707  0.00  0.00    -0.211 OA
BRANCH  18  21
HETATM   21  N   UNK N   1     165.951 153.927 156.511  0.00  0.00    -0.215 NA
HETATM   22  H   UNK N   1     166.233 152.967 156.710  0.00  0.00     0.140 HD
BRANCH  21  23
HETATM   23  C   UNK N   1     166.242 154.256 155.122  0.00  0.00     0.071 A 
HETATM   24  C   UNK N   1     167.412 155.221 155.042  0.00  0.00     0.022 A 
HETATM   25  C   UNK N   1     167.627 153.748 154.781  0.00  0.00     0.022 A 
ENDBRANCH  21  23
ENDBRANCH  18  21
ENDBRANCH   6  18
TORSDOF 7
ENDMDL
MODEL 4
REMARK VINA RESULT:      -5.9      3.182     10.109
REMARK  7 active torsions:
REMARK  status: ('A' for Active; 'I' for Inactive)
REMARK    1  A    between atoms: C_2  and  C_3 
REMARK       I    between atoms: C_2  and  N_12 
REMARK    2  A    between atoms: C_3  and  C_4 
REMARK    3  A    between atoms: C_4  and  C_5 
REMARK    4  A    between atoms: C_10  and  O_11 
REMARK    5  A    between atoms: C_15  and  S_16 
REMARK    6  A    between atoms: S_16  and  N_19 
REMARK    7  A    between atoms: N_19  and  C_20 
ROOT
HETATM    1  O   UNK N   1     168.174 150.742 155.625  0.00  0.00    -0.273 OA
HETATM    2  C   UNK N   1     168.528 151.397 154.655  0.00  0.00     0.220 C 
HETATM    3  N   UNK N   1     168.053 152.662 154.483  0.00  0.00    -0.351 N 
HETATM    4  C   UNK N   1     167.082 153.232 155.372  0.00  0.00     0.127 C 
HETATM    5  C   UNK N   1     166.490 154.382 154.579  0.00  0.00     0.043 C 
HETATM    6  C   UNK N   1     167.530 154.735 153.522  0.00  0.00     0.143 C 
HETATM    7  C   UNK N   1     168.385 153.483 153.354  0.00  0.00     0.147 C 
ENDROOT
BRANCH   2   8
HETATM    8  C   UNK N   1     169.451 150.779 153.631  0.00  0.00     0.108 C 
BRANCH   8   9
HETATM    9  C   UNK N   1     168.815 149.612 152.870  0.00  0.00     0.051 C 
BRANCH   9  10
HETATM   10  C   UNK N   1     169.302 149.543 151.450  0.00  0.00    -0.025 A 
HETATM   11  C   UNK N   1     170.617 149.916 151.144  0.00  0.00     0.010 A 
HETATM   12  C   UNK N   1     171.081 149.850 149.825  0.00  0.00     0.001 A 
HETATM   13  C   UNK N   1     170.232 149.410 148.807  0.00  0.00     0.003 A 
HETATM   14  C   UNK N   1     168.919 149.033 149.106  0.00  0.00     0.037 A 
HETATM   15  C   UNK N   1     168.451 149.096 150.422  0.00  0.00     0.071 A 
BRANCH  15  16
HETATM   16  O   UNK N   1     167.187 148.728 150.692  0.00  0.00    -0.360 OA
HETATM   17  H   UNK N   1     166.472 149.263 150.410  0.00  0.00     0.217 HD
ENDBRANCH  15  16
ENDBRANCH   9  10
ENDBRANCH   8   9
ENDBRANCH   2   8
BRANCH   6  18
HETATM   18  S   UNK N   1     168.512 156.141 154.128  0.00  0.00     0.215 S 
HETATM   19  O   UNK N   1     169.313 155.741 155.377  0.00  0.00    -0.211 OA
HETATM   20  O   UNK N   1     169.632 156.608 153.181  0.00  0.00    -0.211 OA
BRANCH  18  21
HETATM   21  N   UNK N   1     167.627 157.585 154.661  0.00  0.00    -0.215 NA
HETATM   22  H   UNK N   1     166.781 157.705 154.104  0.00  0.00     0.140 HD
BRANCH  21  23
HETATM   23  C   UNK N   1     167.285 157.476 156.072  0.00  0.00     0.071 A 
HETATM   24  C   UNK N   1     166.790 158.810 156.602  0.00  0.00     0.022 A 
HETATM   25  C   UNK N   1     165.801 157.726 156.235  0.00  0.00     0.022 A 
ENDBRANCH  21  23
ENDBRANCH  18  21
ENDBRANCH   6  18
TORSDOF 7
ENDMDL
MODEL 5
REMARK VINA RESULT:      -5.9      5.138      7.360
REMARK  7 active torsions:
REMARK  status: ('A' for Active; 'I' for Inactive)
REMARK    1  A    between atoms: C_2  and  C_3 
REMARK       I    between atoms: C_2  and  N_12 
REMARK    2  A    between atoms: C_3  and  C_4 
REMARK    3  A    between atoms: C_4  and  C_5 
REMARK    4  A    between atoms: C_10  and  O_11 
REMARK    5  A    between atoms: C_15  and  S_16 
REMARK    6  A    between atoms: S_16  and  N_19 
REMARK    7  A    between atoms: N_19  and  C_20 
ROOT
HETATM    1  O   UNK N   1     167.314 150.297 155.568  0.00  0.00    -0.273 OA
HETATM    2  C   UNK N   1     168.072 150.904 154.826  0.00  0.00     0.220 C 
HETATM    3  N   UNK N   1     168.579 150.285 153.724  0.00  0.00    -0.351 N 
HETATM    4  C   UNK N   1     168.309 148.905 153.440  0.00  0.00     0.127 C 
HETATM    5  C   UNK N   1     169.404 148.509 152.468  0.00  0.00     0.043 C 
HETATM    6  C   UNK N   1     169.889 149.809 151.838  0.00  0.00     0.143 C 
HETATM    7  C   UNK N   1     169.506 150.910 152.823  0.00  0.00     0.147 C 
ENDROOT
BRANCH   2   8
HETATM    8  C   UNK N   1     168.479 152.319 155.165  0.00  0.00     0.108 C 
BRANCH   8   9
HETATM    9  C   UNK N   1     167.291 153.280 155.270  0.00  0.00     0.051 C 
BRANCH   9  10
HETATM   10  C   UNK N   1     167.597 154.613 154.648  0.00  0.00    -0.025 A 
HETATM   11  C   UNK N   1     168.923 154.958 154.353  0.00  0.00     0.010 A 
HETATM   12  C   UNK N   1     169.217 156.196 153.770  0.00  0.00     0.001 A 
HETATM   13  C   UNK N   1     168.187 157.094 153.479  0.00  0.00     0.003 A 
HETATM   14  C   UNK N   1     166.862 156.755 153.768  0.00  0.00     0.037 A 
HETATM   15  C   UNK N   1     166.563 155.519 154.350  0.00  0.00     0.071 A 
BRANCH  15  16
HETATM   16  O   UNK N   1     165.283 155.208 154.619  0.00  0.00    -0.360 OA
HETATM   17  H   UNK N   1     165.080 154.625 155.323  0.00  0.00     0.217 HD
ENDBRANCH  15  16
ENDBRANCH   9  10
ENDBRANCH   8   9
ENDBRANCH   2   8
BRANCH   6  18
HETATM   18  S   UNK N   1     169.051 150.022 150.238  0.00  0.00     0.215 S 
HETATM   19  O   UNK N   1     169.818 149.291 149.126  0.00  0.00    -0.211 OA
HETATM   20  O   UNK N   1     167.663 149.365 150.139  0.00  0.00    -0.211 OA
BRANCH  18  21
HETATM   21  N   UNK N   1     168.904 151.676 149.608  0.00  0.00    -0.215 NA
HETATM   22  H   UNK N   1     169.060 151.684 148.600  0.00  0.00     0.140 HD
BRANCH  21  23
HETATM   23  C   UNK N   1     167.588 152.218 149.916  0.00  0.00     0.071 A 
HETATM   24  C   UNK N   1     167.716 153.461 150.780  0.00  0.00     0.022 A 
HETATM   25  C   UNK N   1     167.469 153.594 149.294  0.00  0.00     0.022 A 
ENDBRANCH  21  23
ENDBRANCH  18  21
ENDBRANCH   6  18
TORSDOF 7
ENDMDL
MODEL 6
REMARK VINA RESULT:      -5.7      4.539      6.855
REMARK  7 active torsions:
REMARK  status: ('A' for Active; 'I' for Inactive)
REMARK    1  A    between atoms: C_2  and  C_3 
REMARK       I    between atoms: C_2  and  N_12 
REMARK    2  A    between atoms: C_3  and  C_4 
REMARK    3  A    between atoms: C_4  and  C_5 
REMARK    4  A    between atoms: C_10  and  O_11 
REMARK    5  A    between atoms: C_15  and  S_16 
REMARK    6  A    between atoms: S_16  and  N_19 
REMARK    7  A    between atoms: N_19  and  C_20 
ROOT
HETATM    1  O   UNK N   1     166.872 152.406 155.566  0.00  0.00    -0.273 OA
HETATM    2  C   UNK N   1     167.963 152.389 155.013  0.00  0.00     0.220 C 
HETATM    3  N   UNK N   1     168.571 151.198 154.752  0.00  0.00    -0.351 N 
HETATM    4  C   UNK N   1     168.004 149.951 155.175  0.00  0.00     0.127 C 
HETATM    5  C   UNK N   1     169.172 148.984 155.135  0.00  0.00     0.043 C 
HETATM    6  C   UNK N   1     170.185 149.598 154.176  0.00  0.00     0.143 C 
HETATM    7  C   UNK N   1     169.866 151.090 154.144  0.00  0.00     0.147 C 
ENDROOT
BRANCH   2   8
HETATM    8  C   UNK N   1     168.647 153.691 154.668  0.00  0.00     0.108 C 
BRANCH   8   9
HETATM    9  C   UNK N   1     168.216 154.259 153.313  0.00  0.00     0.051 C 
BRANCH   9  10
HETATM   10  C   UNK N   1     167.509 155.577 153.463  0.00  0.00    -0.025 A 
HETATM   11  C   UNK N   1     166.127 155.606 153.698  0.00  0.00     0.010 A 
HETATM   12  C   UNK N   1     165.462 156.828 153.843  0.00  0.00     0.001 A 
HETATM   13  C   UNK N   1     166.174 158.027 153.754  0.00  0.00     0.003 A 
HETATM   14  C   UNK N   1     167.552 158.005 153.523  0.00  0.00     0.037 A 
HETATM   15  C   UNK N   1     168.223 156.786 153.378  0.00  0.00     0.071 A 
BRANCH  15  16
HETATM   16  O   UNK N   1     169.549 156.784 153.158  0.00  0.00    -0.360 OA
HETATM   17  H   UNK N   1     170.142 156.942 153.866  0.00  0.00     0.217 HD
ENDBRANCH  15  16
ENDBRANCH   9  10
ENDBRANCH   8   9
ENDBRANCH   2   8
BRANCH   6  18
HETATM   18  S   UNK N   1     169.969 148.832 152.541  0.00  0.00     0.215 S 
HETATM   19  O   UNK N   1     171.084 147.810 152.272  0.00  0.00    -0.211 OA
HETATM   20  O   UNK N   1     168.709 147.960 152.393  0.00  0.00    -0.211 OA
BRANCH  18  21
HETATM   21  N   UNK N   1     170.048 149.899 151.124  0.00  0.00    -0.215 NA
HETATM   22  H   UNK N   1     170.756 149.565 150.470  0.00  0.00     0.140 HD
BRANCH  21  23
HETATM   23  C   UNK N   1     168.750 149.963 150.467  0.00  0.00     0.071 A 
HETATM   24  C   UNK N   1     168.522 151.345 149.879  0.00  0.00     0.022 A 
HETATM   25  C   UNK N   1     168.963 150.206 148.988  0.00  0.00     0.022 A 
ENDBRANCH  21  23
ENDBRANCH  18  21
ENDBRANCH   6  18
TORSDOF 7
ENDMDL
MODEL 7
REMARK VINA RESULT:      -5.7      2.948      3.959
REMARK  7 active torsions:
REMARK  status: ('A' for Active; 'I' for Inactive)
REMARK    1  A    between atoms: C_2  and  C_3 
REMARK       I    between atoms: C_2  and  N_12 
REMARK    2  A    between atoms: C_3  and  C_4 
REMARK    3  A    between atoms: C_4  and  C_5 
REMARK    4  A    between atoms: C_10  and  O_11 
REMARK    5  A    between atoms: C_15  and  S_16 
REMARK    6  A    between atoms: S_16  and  N_19 
REMARK    7  A    between atoms: N_19  and  C_20 
ROOT
HETATM    1  O   UNK N   1     161.956 157.722 155.988  0.00  0.00    -0.273 OA
HETATM    2  C   UNK N   1     162.896 157.464 156.727  0.00  0.00     0.220 C 
HETATM    3  N   UNK N   1     163.507 156.249 156.646  0.00  0.00    -0.351 N 
HETATM    4  C   UNK N   1     163.033 155.222 155.765  0.00  0.00     0.127 C 
HETATM    5  C   UNK N   1     163.641 153.949 156.324  0.00  0.00     0.043 C 
HETATM    6  C   UNK N   1     164.850 154.392 157.140  0.00  0.00     0.143 C 
HETATM    7  C   UNK N   1     164.589 155.851 157.501  0.00  0.00     0.147 C 
ENDROOT
BRANCH   2   8
HETATM    8  C   UNK N   1     163.340 158.478 157.755  0.00  0.00     0.108 C 
BRANCH   8   9
HETATM    9  C   UNK N   1     163.893 159.764 157.135  0.00  0.00     0.051 C 
BRANCH   9  10
HETATM   10  C   UNK N   1     165.305 160.031 157.574  0.00  0.00    -0.025 A 
HETATM   11  C   UNK N   1     165.838 159.338 158.669  0.00  0.00     0.010 A 
HETATM   12  C   UNK N   1     167.154 159.576 159.082  0.00  0.00     0.001 A 
HETATM   13  C   UNK N   1     167.942 160.508 158.402  0.00  0.00     0.003 A 
HETATM   14  C   UNK N   1     167.417 161.200 157.307  0.00  0.00     0.037 A 
HETATM   15  C   UNK N   1     166.104 160.965 156.889  0.00  0.00     0.071 A 
BRANCH  15  16
HETATM   16  O   UNK N   1     165.615 161.638 155.833  0.00  0.00    -0.360 OA
HETATM   17  H   UNK N   1     165.549 161.217 154.999  0.00  0.00     0.217 HD
ENDBRANCH  15  16
ENDBRANCH   9  10
ENDBRANCH   8   9
ENDBRANCH   2   8
BRANCH   6  18
HETATM   18  S   UNK N   1     166.337 154.215 156.107  0.00  0.00     0.215 S 
HETATM   19  O   UNK N   1     167.599 154.553 156.916  0.00  0.00    -0.211 OA
HETATM   20  O   UNK N   1     166.642 152.777 155.648  0.00  0.00    -0.211 OA
BRANCH  18  21
HETATM   21  N   UNK N   1     166.473 155.270 154.685  0.00  0.00    -0.215 NA
HETATM   22  H   UNK N   1     165.581 155.726 154.499  0.00  0.00     0.140 HD
BRANCH  21  23
HETATM   23  C   UNK N   1     167.512 156.269 154.896  0.00  0.00     0.071 A 
HETATM   24  C   UNK N   1     167.396 157.378 153.866  0.00  0.00     0.022 A 
HETATM   25  C   UNK N   1     166.856 157.583 155.264  0.00  0.00     0.022 A 
ENDBRANCH  21  23
ENDBRANCH  18  21
ENDBRANCH   6  18
TORSDOF 7
ENDMDL
MODEL 8
REMARK VINA RESULT:      -5.7      2.611      4.286
REMARK  7 active torsions:
REMARK  status: ('A' for Active; 'I' for Inactive)
REMARK    1  A    between atoms: C_2  and  C_3 
REMARK       I    between atoms: C_2  and  N_12 
REMARK    2  A    between atoms: C_3  and  C_4 
REMARK    3  A    between atoms: C_4  and  C_5 
REMARK    4  A    between atoms: C_10  and  O_11 
REMARK    5  A    between atoms: C_15  and  S_16 
REMARK    6  A    between atoms: S_16  and  N_19 
REMARK    7  A    between atoms: N_19  and  C_20 
ROOT
HETATM    1  O   UNK N   1     165.441 153.963 157.964  0.00  0.00    -0.273 OA
HETATM    2  C   UNK N   1     166.387 154.704 157.740  0.00  0.00     0.220 C 
HETATM    3  N   UNK N   1     167.107 154.555 156.594  0.00  0.00    -0.351 N 
HETATM    4  C   UNK N   1     166.836 153.498 155.663  0.00  0.00     0.127 C 
HETATM    5  C   UNK N   1     168.108 153.397 154.842  0.00  0.00     0.043 C 
HETATM    6  C   UNK N   1     168.801 154.748 154.984  0.00  0.00     0.143 C 
HETATM    7  C   UNK N   1     168.255 155.355 156.273  0.00  0.00     0.147 C 
ENDROOT
BRANCH   2   8
HETATM    8  C   UNK N   1     166.779 155.747 158.761  0.00  0.00     0.108 C 
BRANCH   8   9
HETATM    9  C   UNK N   1     165.740 156.861 158.916  0.00  0.00     0.051 C 
BRANCH   9  10
HETATM   10  C   UNK N   1     166.249 158.173 158.391  0.00  0.00    -0.025 A 
HETATM   11  C   UNK N   1     166.008 158.533 157.058  0.00  0.00     0.010 A 
HETATM   12  C   UNK N   1     166.475 159.755 156.562  0.00  0.00     0.001 A 
HETATM   13  C   UNK N   1     167.184 160.623 157.396  0.00  0.00     0.003 A 
HETATM   14  C   UNK N   1     167.424 160.272 158.727  0.00  0.00     0.037 A 
HETATM   15  C   UNK N   1     166.959 159.053 159.228  0.00  0.00     0.071 A 
BRANCH  15  16
HETATM   16  O   UNK N   1     167.198 158.731 160.512  0.00  0.00    -0.360 OA
HETATM   17  H   UNK N   1     167.613 159.349 161.080  0.00  0.00     0.217 HD
ENDBRANCH  15  16
ENDBRANCH   9  10
ENDBRANCH   8   9
ENDBRANCH   2   8
BRANCH   6  18
HETATM   18  S   UNK N   1     168.382 155.765 153.535  0.00  0.00     0.215 S 
HETATM   19  O   UNK N   1     169.551 156.692 153.171  0.00  0.00    -0.211 OA
HETATM   20  O   UNK N   1     168.188 154.982 152.225  0.00  0.00    -0.211 OA
BRANCH  18  21
HETATM   21  N   UNK N   1     167.013 156.885 153.694  0.00  0.00    -0.215 NA
HETATM   22  H   UNK N   1     167.159 157.705 153.106  0.00  0.00     0.140 HD
BRANCH  21  23
HETATM   23  C   UNK N   1     165.771 156.219 153.325  0.00  0.00     0.071 A 
HETATM   24  C   UNK N   1     164.749 156.348 154.441  0.00  0.00     0.022 A 
HETATM   25  C   UNK N   1     164.671 157.255 153.234  0.00  0.00     0.022 A 
ENDBRANCH  21  23
ENDBRANCH  18  21
ENDBRANCH   6  18
TORSDOF 7
ENDMDL
MODEL 9
REMARK VINA RESULT:      -5.7      5.481      7.218
REMARK  7 active torsions:
REMARK  status: ('A' for Active; 'I' for Inactive)
REMARK    1  A    between atoms: C_2  and  C_3 
REMARK       I    between atoms: C_2  and  N_12 
REMARK    2  A    between atoms: C_3  and  C_4 
REMARK    3  A    between atoms: C_4  and  C_5 
REMARK    4  A    between atoms: C_10  and  O_11 
REMARK    5  A    between atoms: C_15  and  S_16 
REMARK    6  A    between atoms: S_16  and  N_19 
REMARK    7  A    between atoms: N_19  and  C_20 
ROOT
HETATM    1  O   UNK N   1     168.398 152.372 156.445  0.00  0.00    -0.273 OA
HETATM    2  C   UNK N   1     168.661 152.299 155.254  0.00  0.00     0.220 C 
HETATM    3  N   UNK N   1     169.496 151.323 154.802  0.00  0.00    -0.351 N 
HETATM    4  C   UNK N   1     170.146 150.411 155.699  0.00  0.00     0.127 C 
HETATM    5  C   UNK N   1     171.301 149.858 154.886  0.00  0.00     0.043 C 
HETATM    6  C   UNK N   1     170.916 150.064 153.425  0.00  0.00     0.143 C 
HETATM    7  C   UNK N   1     169.887 151.191 153.428  0.00  0.00     0.147 C 
ENDROOT
BRANCH   2   8
HETATM    8  C   UNK N   1     168.093 153.324 154.298  0.00  0.00     0.108 C 
BRANCH   8   9
HETATM    9  C   UNK N   1     167.760 154.658 154.972  0.00  0.00     0.051 C 
BRANCH   9  10
HETATM   10  C   UNK N   1     166.309 155.015 154.811  0.00  0.00    -0.025 A 
HETATM   11  C   UNK N   1     165.914 155.888 153.789  0.00  0.00     0.010 A 
HETATM   12  C   UNK N   1     164.564 156.222 153.630  0.00  0.00     0.001 A 
HETATM   13  C   UNK N   1     163.604 155.685 154.491  0.00  0.00     0.003 A 
HETATM   14  C   UNK N   1     163.991 154.811 155.510  0.00  0.00     0.037 A 
HETATM   15  C   UNK N   1     165.339 154.472 155.674  0.00  0.00     0.071 A 
BRANCH  15  16
HETATM   16  O   UNK N   1     165.693 153.629 156.659  0.00  0.00    -0.360 OA
HETATM   17  H   UNK N   1     166.248 152.898 156.473  0.00  0.00     0.217 HD
ENDBRANCH  15  16
ENDBRANCH   9  10
ENDBRANCH   8   9
ENDBRANCH   2   8
BRANCH   6  18
HETATM   18  S   UNK N   1     170.207 148.513 152.792  0.00  0.00     0.215 S 
HETATM   19  O   UNK N   1     171.105 147.321 153.155  0.00  0.00    -0.211 OA
HETATM   20  O   UNK N   1     168.871 148.099 153.435  0.00  0.00    -0.211 OA
BRANCH  18  21
HETATM   21  N   UNK N   1     170.022 148.360 151.032  0.00  0.00    -0.215 NA
HETATM   22  H   UNK N   1     169.955 147.377 150.770  0.00  0.00     0.140 HD
BRANCH  21  23
HETATM   23  C   UNK N   1     168.837 149.080 150.585  0.00  0.00     0.071 A 
HETATM   24  C   UNK N   1     169.233 150.262 149.718  0.00  0.00     0.022 A 
HETATM   25  C   UNK N   1     168.748 148.981 149.077  0.00  0.00     0.022 A 
ENDBRANCH  21  23
ENDBRANCH  18  21
ENDBRANCH   6  18
TORSDOF 7
ENDMDL
