MODEL 1
REMARK VINA RESULT:      -7.1      0.000      0.000
REMARK  5 active torsions:
REMARK  status: ('A' for Active; 'I' for Inactive)
REMARK    1  A    between atoms: C_4  and  C_5 
REMARK       I    between atoms: C_5  and  N_7 
REMARK    2  A    between atoms: N_7  and  C_8 
REMARK    3  A    between atoms: C_9  and  C_8 
REMARK    4  A    between atoms: C_22  and  S_23 
REMARK    5  A    between atoms: S_23  and  N_24 
ROOT
HETATM    1  C   UNK N   1     168.685 151.963 153.517  0.00  0.00     0.275 C 
HETATM    2  O   UNK N   1     169.115 152.011 152.374  0.00  0.00    -0.265 OA
HETATM    3  N   UNK N   1     168.072 153.039 154.069  0.00  0.00    -0.355 N 
HETATM    4  H   UNK N   1     167.768 152.984 155.003  0.00  0.00     0.162 HD
ENDROOT
BRANCH   3   5
HETATM    5  C   UNK N   1     167.851 154.262 153.334  0.00  0.00     0.128 C 
BRANCH   5   6
HETATM    6  C   UNK N   1     167.734 155.463 154.279  0.00  0.00     0.017 A 
HETATM    7  C   UNK N   1     168.071 156.737 153.512  0.00  0.00     0.022 A 
HETATM    8  C   UNK N   1     166.632 156.438 153.864  0.00  0.00    -0.007 A 
HETATM    9  C   UNK N   1     165.748 156.113 152.645  0.00  0.00     0.015 C 
HETATM   10  C   UNK N   1     166.046 157.321 154.930  0.00  0.00    -0.043 A 
HETATM   11  C   UNK N   1     164.240 156.260 152.936  0.00  0.00     0.006 C 
HETATM   12  C   UNK N   1     163.895 156.156 154.428  0.00  0.00     0.039 C 
HETATM   13  C   UNK N   1     164.678 157.182 155.192  0.00  0.00    -0.051 A 
HETATM   14  C   UNK N   1     164.052 158.013 156.126  0.00  0.00     0.007 A 
HETATM   15  C   UNK N   1     164.801 158.976 156.811  0.00  0.00     0.001 A 
HETATM   16  C   UNK N   1     166.170 159.114 156.557  0.00  0.00     0.001 A 
HETATM   17  C   UNK N   1     166.792 158.294 155.613  0.00  0.00     0.008 A 
ENDBRANCH   5   6
ENDBRANCH   3   5
BRANCH   1  18
HETATM   18  C   UNK N   1     168.824 150.735 154.301  0.00  0.00     0.144 A 
HETATM   19  O   UNK N   1     169.834 149.899 154.195  0.00  0.00    -0.308 OA
HETATM   20  C   UNK N   1     169.647 148.909 155.030  0.00  0.00     0.073 A 
HETATM   21  C   UNK N   1     170.575 147.757 155.190  0.00  0.00     0.078 C 
HETATM   22  C   UNK N   1     168.466 149.106 155.709  0.00  0.00     0.106 A 
HETATM   23  C   UNK N   1     167.922 150.284 155.252  0.00  0.00     0.070 A 
BRANCH  22  24
HETATM   24  S   UNK N   1     167.752 148.027 156.933  0.00  0.00     0.241 S 
HETATM   25  O   UNK N   1     166.311 148.407 157.303  0.00  0.00    -0.206 OA
HETATM   26  O   UNK N   1     168.472 148.091 158.287  0.00  0.00    -0.206 OA
BRANCH  24  27
HETATM   27  N   UNK N   1     167.683 146.315 156.517  0.00  0.00    -0.225 NA
HETATM   28  H   UNK N   1     167.004 145.846 157.116  0.00  0.00     0.136 HD
HETATM   29  H   UNK N   1     168.603 145.888 156.625  0.00  0.00     0.136 HD
ENDBRANCH  24  27
ENDBRANCH  22  24
ENDBRANCH   1  18
TORSDOF 5
ENDMDL
MODEL 2
REMARK VINA RESULT:      -6.9      7.125      9.635
REMARK  5 active torsions:
REMARK  status: ('A' for Active; 'I' for Inactive)
REMARK    1  A    between atoms: C_4  and  C_5 
REMARK       I    between atoms: C_5  and  N_7 
REMARK    2  A    between atoms: N_7  and  C_8 
REMARK    3  A    between atoms: C_9  and  C_8 
REMARK    4  A    between atoms: C_22  and  S_23 
REMARK    5  A    between atoms: S_23  and  N_24 
ROOT
HETATM    1  C   UNK N   1     161.650 158.255 156.238  0.00  0.00     0.275 C 
HETATM    2  O   UNK N   1     161.659 159.314 155.628  0.00  0.00    -0.265 OA
HETATM    3  N   UNK N   1     160.541 157.853 156.905  0.00  0.00    -0.355 N 
HETATM    4  H   UNK N   1     160.573 157.014 157.416  0.00  0.00     0.162 HD
ENDROOT
BRANCH   3   5
HETATM    5  C   UNK N   1     159.313 158.614 156.888  0.00  0.00     0.128 C 
BRANCH   5   6
HETATM    6  C   UNK N   1     158.163 157.823 157.522  0.00  0.00     0.017 A 
HETATM    7  C   UNK N   1     157.127 158.799 158.068  0.00  0.00     0.022 A 
HETATM    8  C   UNK N   1     156.832 158.031 156.801  0.00  0.00    -0.007 A 
HETATM    9  C   UNK N   1     156.782 158.911 155.538  0.00  0.00     0.015 C 
HETATM   10  C   UNK N   1     155.789 156.958 156.940  0.00  0.00    -0.043 A 
HETATM   11  C   UNK N   1     156.050 158.234 154.359  0.00  0.00     0.006 C 
HETATM   12  C   UNK N   1     156.009 156.704 154.466  0.00  0.00     0.039 C 
HETATM   13  C   UNK N   1     155.376 156.314 155.768  0.00  0.00    -0.051 A 
HETATM   14  C   UNK N   1     154.365 155.349 155.814  0.00  0.00     0.007 A 
HETATM   15  C   UNK N   1     153.776 155.017 157.038  0.00  0.00     0.001 A 
HETATM   16  C   UNK N   1     154.191 155.654 158.214  0.00  0.00     0.001 A 
HETATM   17  C   UNK N   1     155.190 156.628 158.166  0.00  0.00     0.008 A 
ENDBRANCH   5   6
ENDBRANCH   3   5
BRANCH   1  18
HETATM   18  C   UNK N   1     162.842 157.406 156.249  0.00  0.00     0.144 A 
HETATM   19  O   UNK N   1     164.022 157.781 155.804  0.00  0.00    -0.308 OA
HETATM   20  C   UNK N   1     164.861 156.788 155.955  0.00  0.00     0.073 A 
HETATM   21  C   UNK N   1     166.294 156.828 155.557  0.00  0.00     0.078 C 
HETATM   22  C   UNK N   1     164.202 155.721 156.522  0.00  0.00     0.106 A 
HETATM   23  C   UNK N   1     162.895 156.104 156.721  0.00  0.00     0.070 A 
BRANCH  22  24
HETATM   24  S   UNK N   1     164.895 154.124 156.903  0.00  0.00     0.241 S 
HETATM   25  O   UNK N   1     166.005 154.188 157.962  0.00  0.00    -0.206 OA
HETATM   26  O   UNK N   1     165.609 153.476 155.709  0.00  0.00    -0.206 OA
BRANCH  24  27
HETATM   27  N   UNK N   1     163.766 152.906 157.494  0.00  0.00    -0.225 NA
HETATM   28  H   UNK N   1     162.852 153.333 157.646  0.00  0.00     0.136 HD
HETATM   29  H   UNK N   1     164.111 152.495 158.362  0.00  0.00     0.136 HD
ENDBRANCH  24  27
ENDBRANCH  22  24
ENDBRANCH   1  18
TORSDOF 5
ENDMDL
MODEL 3
REMARK VINA RESULT:      -6.9      1.583      2.146
REMARK  5 active torsions:
REMARK  status: ('A' for Active; 'I' for Inactive)
REMARK    1  A    between atoms: C_4  and  C_5 
REMARK       I    between atoms: C_5  and  N_7 
REMARK    2  A    between atoms: N_7  and  C_8 
REMARK    3  A    between atoms: C_9  and  C_8 
REMARK    4  A    between atoms: C_22  and  S_23 
REMARK    5  A    between atoms: S_23  and  N_24 
ROOT
HETATM    1  C   UNK N   1     168.545 154.321 153.525  0.00  0.00     0.275 C 
HETATM    2  O   UNK N   1     169.446 155.035 153.111  0.00  0.00    -0.265 OA
HETATM    3  N   UNK N   1     167.269 154.774 153.567  0.00  0.00    -0.355 N 
HETATM    4  H   UNK N   1     166.569 154.191 153.939  0.00  0.00     0.162 HD
ENDROOT
BRANCH   3   5
HETATM    5  C   UNK N   1     166.900 156.085 153.085  0.00  0.00     0.128 C 
BRANCH   5   6
HETATM    6  C   UNK N   1     167.033 157.139 154.190  0.00  0.00     0.017 A 
HETATM    7  C   UNK N   1     166.416 158.448 153.708  0.00  0.00     0.022 A 
HETATM    8  C   UNK N   1     165.680 157.609 154.726  0.00  0.00    -0.007 A 
HETATM    9  C   UNK N   1     164.386 156.970 154.188  0.00  0.00     0.015 C 
HETATM   10  C   UNK N   1     165.644 158.185 156.114  0.00  0.00    -0.043 A 
HETATM   11  C   UNK N   1     163.426 156.514 155.308  0.00  0.00     0.006 C 
HETATM   12  C   UNK N   1     164.129 156.275 156.651  0.00  0.00     0.039 C 
HETATM   13  C   UNK N   1     164.856 157.520 157.061  0.00  0.00    -0.051 A 
HETATM   14  C   UNK N   1     164.725 158.035 158.354  0.00  0.00     0.007 A 
HETATM   15  C   UNK N   1     165.398 159.210 158.706  0.00  0.00     0.001 A 
HETATM   16  C   UNK N   1     166.192 159.874 157.765  0.00  0.00     0.001 A 
HETATM   17  C   UNK N   1     166.311 159.369 156.468  0.00  0.00     0.008 A 
ENDBRANCH   5   6
ENDBRANCH   3   5
BRANCH   1  18
HETATM   18  C   UNK N   1     168.839 152.959 153.976  0.00  0.00     0.144 A 
HETATM   19  O   UNK N   1     169.999 152.361 153.816  0.00  0.00    -0.308 OA
HETATM   20  C   UNK N   1     169.923 151.158 154.327  0.00  0.00     0.073 A 
HETATM   21  C   UNK N   1     171.037 150.172 154.327  0.00  0.00     0.078 C 
HETATM   22  C   UNK N   1     168.661 150.964 154.842  0.00  0.00     0.106 A 
HETATM   23  C   UNK N   1     167.948 152.120 154.626  0.00  0.00     0.070 A 
BRANCH  22  24
HETATM   24  S   UNK N   1     168.047 149.483 155.619  0.00  0.00     0.241 S 
HETATM   25  O   UNK N   1     166.527 149.502 155.834  0.00  0.00    -0.206 OA
HETATM   26  O   UNK N   1     168.585 149.282 157.042  0.00  0.00    -0.206 OA
BRANCH  24  27
HETATM   27  N   UNK N   1     168.372 147.969 154.775  0.00  0.00    -0.225 NA
HETATM   28  H   UNK N   1     169.366 147.751 154.835  0.00  0.00     0.136 HD
HETATM   29  H   UNK N   1     168.085 148.040 153.799  0.00  0.00     0.136 HD
ENDBRANCH  24  27
ENDBRANCH  22  24
ENDBRANCH   1  18
TORSDOF 5
ENDMDL
MODEL 4
REMARK VINA RESULT:      -6.7      1.835      2.650
REMARK  5 active torsions:
REMARK  status: ('A' for Active; 'I' for Inactive)
REMARK    1  A    between atoms: C_4  and  C_5 
REMARK       I    between atoms: C_5  and  N_7 
REMARK    2  A    between atoms: N_7  and  C_8 
REMARK    3  A    between atoms: C_9  and  C_8 
REMARK    4  A    between atoms: C_22  and  S_23 
REMARK    5  A    between atoms: S_23  and  N_24 
ROOT
HETATM    1  C   UNK N   1     168.987 154.516 154.115  0.00  0.00     0.275 C 
HETATM    2  O   UNK N   1     169.430 155.128 153.153  0.00  0.00    -0.265 OA
HETATM    3  N   UNK N   1     168.354 155.172 155.117  0.00  0.00    -0.355 N 
HETATM    4  H   UNK N   1     168.040 154.659 155.896  0.00  0.00     0.162 HD
ENDROOT
BRANCH   3   5
HETATM    5  C   UNK N   1     168.125 156.598 155.082  0.00  0.00     0.128 C 
BRANCH   5   6
HETATM    6  C   UNK N   1     167.029 157.006 156.073  0.00  0.00     0.017 A 
HETATM    7  C   UNK N   1     166.706 158.484 155.878  0.00  0.00     0.022 A 
HETATM    8  C   UNK N   1     165.736 157.438 155.381  0.00  0.00    -0.007 A 
HETATM    9  C   UNK N   1     165.634 157.364 153.846  0.00  0.00     0.015 C 
HETATM   10  C   UNK N   1     164.458 157.336 156.166  0.00  0.00    -0.043 A 
HETATM   11  C   UNK N   1     164.354 156.651 153.359  0.00  0.00     0.006 C 
HETATM   12  C   UNK N   1     163.743 155.714 154.408  0.00  0.00     0.039 C 
HETATM   13  C   UNK N   1     163.467 156.485 155.664  0.00  0.00    -0.051 A 
HETATM   14  C   UNK N   1     162.230 156.388 156.309  0.00  0.00     0.007 A 
HETATM   15  C   UNK N   1     161.990 157.134 157.467  0.00  0.00     0.001 A 
HETATM   16  C   UNK N   1     162.980 157.981 157.977  0.00  0.00     0.001 A 
HETATM   17  C   UNK N   1     164.211 158.089 157.325  0.00  0.00     0.008 A 
ENDBRANCH   5   6
ENDBRANCH   3   5
BRANCH   1  18
HETATM   18  C   UNK N   1     169.134 153.061 154.187  0.00  0.00     0.144 A 
HETATM   19  O   UNK N   1     170.166 152.397 153.714  0.00  0.00    -0.308 OA
HETATM   20  C   UNK N   1     169.980 151.121 153.939  0.00  0.00     0.073 A 
HETATM   21  C   UNK N   1     170.929 150.049 153.536  0.00  0.00     0.078 C 
HETATM   22  C   UNK N   1     168.777 150.946 154.585  0.00  0.00     0.106 A 
HETATM   23  C   UNK N   1     168.218 152.191 154.757  0.00  0.00     0.070 A 
BRANCH  22  24
HETATM   24  S   UNK N   1     168.056 149.395 155.085  0.00  0.00     0.241 S 
HETATM   25  O   UNK N   1     168.854 148.689 156.190  0.00  0.00    -0.206 OA
HETATM   26  O   UNK N   1     168.041 148.348 153.963  0.00  0.00    -0.206 OA
BRANCH  24  27
HETATM   27  N   UNK N   1     166.400 149.464 155.686  0.00  0.00    -0.225 NA
HETATM   28  H   UNK N   1     166.075 150.430 155.678  0.00  0.00     0.136 HD
HETATM   29  H   UNK N   1     166.352 149.085 156.632  0.00  0.00     0.136 HD
ENDBRANCH  24  27
ENDBRANCH  22  24
ENDBRANCH   1  18
TORSDOF 5
ENDMDL
MODEL 5
REMARK VINA RESULT:      -6.7      2.990      4.000
REMARK  5 active torsions:
REMARK  status: ('A' for Active; 'I' for Inactive)
REMARK    1  A    between atoms: C_4  and  C_5 
REMARK       I    between atoms: C_5  and  N_7 
REMARK    2  A    between atoms: N_7  and  C_8 
REMARK    3  A    between atoms: C_9  and  C_8 
REMARK    4  A    between atoms: C_22  and  S_23 
REMARK    5  A    between atoms: S_23  and  N_24 
ROOT
HETATM    1  C   UNK N   1     169.085 154.088 153.594  0.00  0.00     0.275 C 
HETATM    2  O   UNK N   1     168.907 155.044 152.854  0.00  0.00    -0.265 OA
HETATM    3  N   UNK N   1     169.232 154.266 154.929  0.00  0.00    -0.355 N 
HETATM    4  H   UNK N   1     169.409 153.483 155.497  0.00  0.00     0.162 HD
ENDROOT
BRANCH   3   5
HETATM    5  C   UNK N   1     169.137 155.568 155.548  0.00  0.00     0.128 C 
BRANCH   5   6
HETATM    6  C   UNK N   1     167.873 155.681 156.409  0.00  0.00     0.017 A 
HETATM    7  C   UNK N   1     167.861 157.040 157.102  0.00  0.00     0.022 A 
HETATM    8  C   UNK N   1     166.932 156.789 155.936  0.00  0.00    -0.007 A 
HETATM    9  C   UNK N   1     167.284 157.599 154.675  0.00  0.00     0.015 C 
HETATM   10  C   UNK N   1     165.479 156.670 156.300  0.00  0.00    -0.043 A 
HETATM   11  C   UNK N   1     166.113 157.698 153.674  0.00  0.00     0.006 C 
HETATM   12  C   UNK N   1     165.076 156.579 153.839  0.00  0.00     0.039 C 
HETATM   13  C   UNK N   1     164.562 156.581 155.247  0.00  0.00    -0.051 A 
HETATM   14  C   UNK N   1     163.190 156.530 155.510  0.00  0.00     0.007 A 
HETATM   15  C   UNK N   1     162.734 156.554 156.832  0.00  0.00     0.001 A 
HETATM   16  C   UNK N   1     163.647 156.637 157.890  0.00  0.00     0.001 A 
HETATM   17  C   UNK N   1     165.018 156.702 157.627  0.00  0.00     0.008 A 
ENDBRANCH   5   6
ENDBRANCH   3   5
BRANCH   1  18
HETATM   18  C   UNK N   1     169.134 152.733 153.041  0.00  0.00     0.144 A 
HETATM   19  O   UNK N   1     169.620 151.691 153.679  0.00  0.00    -0.308 OA
HETATM   20  C   UNK N   1     169.517 150.641 152.904  0.00  0.00     0.073 A 
HETATM   21  C   UNK N   1     169.971 149.273 153.274  0.00  0.00     0.078 C 
HETATM   22  C   UNK N   1     168.939 151.014 151.712  0.00  0.00     0.106 A 
HETATM   23  C   UNK N   1     168.682 152.363 151.784  0.00  0.00     0.070 A 
BRANCH  22  24
HETATM   24  S   UNK N   1     168.608 149.958 150.315  0.00  0.00     0.241 S 
HETATM   25  O   UNK N   1     169.855 149.220 149.809  0.00  0.00    -0.206 OA
HETATM   26  O   UNK N   1     168.148 150.730 149.071  0.00  0.00    -0.206 OA
BRANCH  24  27
HETATM   27  N   UNK N   1     167.398 148.698 150.561  0.00  0.00    -0.225 NA
HETATM   28  H   UNK N   1     167.521 148.283 151.484  0.00  0.00     0.136 HD
HETATM   29  H   UNK N   1     167.482 147.982 149.839  0.00  0.00     0.136 HD
ENDBRANCH  24  27
ENDBRANCH  22  24
ENDBRANCH   1  18
TORSDOF 5
ENDMDL
MODEL 6
REMARK VINA RESULT:      -6.7     11.346     12.841
REMARK  5 active torsions:
REMARK  status: ('A' for Active; 'I' for Inactive)
REMARK    1  A    between atoms: C_4  and  C_5 
REMARK       I    between atoms: C_5  and  N_7 
REMARK    2  A    between atoms: N_7  and  C_8 
REMARK    3  A    between atoms: C_9  and  C_8 
REMARK    4  A    between atoms: C_22  and  S_23 
REMARK    5  A    between atoms: S_23  and  N_24 
ROOT
HETATM    1  C   UNK N   1     160.409 146.532 162.916  0.00  0.00     0.275 C 
HETATM    2  O   UNK N   1     160.506 145.322 163.057  0.00  0.00    -0.265 OA
HETATM    3  N   UNK N   1     159.473 147.058 162.090  0.00  0.00    -0.355 N 
HETATM    4  H   UNK N   1     159.441 148.033 161.968  0.00  0.00     0.162 HD
ENDROOT
BRANCH   3   5
HETATM    5  C   UNK N   1     158.520 146.235 161.381  0.00  0.00     0.128 C 
BRANCH   5   6
HETATM    6  C   UNK N   1     158.697 146.365 159.864  0.00  0.00     0.017 A 
HETATM    7  C   UNK N   1     158.054 145.162 159.182  0.00  0.00     0.022 A 
HETATM    8  C   UNK N   1     157.368 146.507 159.123  0.00  0.00    -0.007 A 
HETATM    9  C   UNK N   1     156.054 146.571 159.924  0.00  0.00     0.015 C 
HETATM   10  C   UNK N   1     157.390 147.170 157.775  0.00  0.00    -0.043 A 
HETATM   11  C   UNK N   1     155.147 147.747 159.505  0.00  0.00     0.006 C 
HETATM   12  C   UNK N   1     155.909 148.888 158.817  0.00  0.00     0.039 C 
HETATM   13  C   UNK N   1     156.648 148.348 157.630  0.00  0.00    -0.051 A 
HETATM   14  C   UNK N   1     156.573 148.984 156.387  0.00  0.00     0.007 A 
HETATM   15  C   UNK N   1     157.255 148.449 155.290  0.00  0.00     0.001 A 
HETATM   16  C   UNK N   1     158.004 147.275 155.431  0.00  0.00     0.001 A 
HETATM   17  C   UNK N   1     158.067 146.631 156.669  0.00  0.00     0.008 A 
ENDBRANCH   5   6
ENDBRANCH   3   5
BRANCH   1  18
HETATM   18  C   UNK N   1     161.306 147.428 163.649  0.00  0.00     0.144 A 
HETATM   19  O   UNK N   1     160.917 148.244 164.604  0.00  0.00    -0.308 OA
HETATM   20  C   UNK N   1     161.960 148.900 165.044  0.00  0.00     0.073 A 
HETATM   21  C   UNK N   1     161.917 149.927 166.120  0.00  0.00     0.078 C 
HETATM   22  C   UNK N   1     163.076 148.496 164.347  0.00  0.00     0.106 A 
HETATM   23  C   UNK N   1     162.671 147.541 163.443  0.00  0.00     0.070 A 
BRANCH  22  24
HETATM   24  S   UNK N   1     164.737 149.109 164.550  0.00  0.00     0.241 S 
HETATM   25  O   UNK N   1     165.357 148.729 165.902  0.00  0.00    -0.206 OA
HETATM   26  O   UNK N   1     164.815 150.642 164.566  0.00  0.00    -0.206 OA
BRANCH  24  27
HETATM   27  N   UNK N   1     165.912 148.590 163.343  0.00  0.00    -0.225 NA
HETATM   28  H   UNK N   1     165.838 147.582 163.207  0.00  0.00     0.136 HD
HETATM   29  H   UNK N   1     166.856 148.836 163.641  0.00  0.00     0.136 HD
ENDBRANCH  24  27
ENDBRANCH  22  24
ENDBRANCH   1  18
TORSDOF 5
ENDMDL
MODEL 7
REMARK VINA RESULT:      -6.5      7.694     10.324
REMARK  5 active torsions:
REMARK  status: ('A' for Active; 'I' for Inactive)
REMARK    1  A    between atoms: C_4  and  C_5 
REMARK       I    between atoms: C_5  and  N_7 
REMARK    2  A    between atoms: N_7  and  C_8 
REMARK    3  A    between atoms: C_9  and  C_8 
REMARK    4  A    between atoms: C_22  and  S_23 
REMARK    5  A    between atoms: S_23  and  N_24 
ROOT
HETATM    1  C   UNK N   1     160.126 157.476 157.422  0.00  0.00     0.275 C 
HETATM    2  O   UNK N   1     159.716 158.365 156.690  0.00  0.00    -0.265 OA
HETATM    3  N   UNK N   1     159.439 157.129 158.538  0.00  0.00    -0.355 N 
HETATM    4  H   UNK N   1     159.811 156.435 159.127  0.00  0.00     0.162 HD
ENDROOT
BRANCH   3   5
HETATM    5  C   UNK N   1     158.182 157.745 158.891  0.00  0.00     0.128 C 
BRANCH   5   6
HETATM    6  C   UNK N   1     156.997 156.922 158.372  0.00  0.00     0.017 A 
HETATM    7  C   UNK N   1     155.707 157.473 158.970  0.00  0.00     0.022 A 
HETATM    8  C   UNK N   1     156.032 157.745 157.520  0.00  0.00    -0.007 A 
HETATM    9  C   UNK N   1     156.351 159.222 157.220  0.00  0.00     0.015 C 
HETATM   10  C   UNK N   1     155.175 157.007 156.529  0.00  0.00    -0.043 A 
HETATM   11  C   UNK N   1     156.231 159.575 155.723  0.00  0.00     0.006 C 
HETATM   12  C   UNK N   1     156.363 158.357 154.798  0.00  0.00     0.039 C 
HETATM   13  C   UNK N   1     155.338 157.331 155.177  0.00  0.00    -0.051 A 
HETATM   14  C   UNK N   1     154.531 156.730 154.207  0.00  0.00     0.007 A 
HETATM   15  C   UNK N   1     153.568 155.790 154.589  0.00  0.00     0.001 A 
HETATM   16  C   UNK N   1     153.405 155.458 155.939  0.00  0.00     0.001 A 
HETATM   17  C   UNK N   1     154.201 156.070 156.910  0.00  0.00     0.008 A 
ENDBRANCH   5   6
ENDBRANCH   3   5
BRANCH   1  18
HETATM   18  C   UNK N   1     161.365 156.769 157.092  0.00  0.00     0.144 A 
HETATM   19  O   UNK N   1     161.995 156.877 155.942  0.00  0.00    -0.308 OA
HETATM   20  C   UNK N   1     163.058 156.115 155.976  0.00  0.00     0.073 A 
HETATM   21  C   UNK N   1     164.021 155.964 154.851  0.00  0.00     0.078 C 
HETATM   22  C   UNK N   1     163.126 155.485 157.197  0.00  0.00     0.106 A 
HETATM   23  C   UNK N   1     162.040 155.899 157.934  0.00  0.00     0.070 A 
BRANCH  22  24
HETATM   24  S   UNK N   1     164.370 154.324 157.727  0.00  0.00     0.241 S 
HETATM   25  O   UNK N   1     164.311 154.024 159.231  0.00  0.00    -0.206 OA
HETATM   26  O   UNK N   1     165.800 154.850 157.547  0.00  0.00    -0.206 OA
BRANCH  24  27
HETATM   27  N   UNK N   1     164.346 152.746 156.942  0.00  0.00    -0.225 NA
HETATM   28  H   UNK N   1     164.816 152.063 157.536  0.00  0.00     0.136 HD
HETATM   29  H   UNK N   1     164.804 152.797 156.032  0.00  0.00     0.136 HD
ENDBRANCH  24  27
ENDBRANCH  22  24
ENDBRANCH   1  18
TORSDOF 5
ENDMDL
MODEL 8
REMARK VINA RESULT:      -6.4     11.917     13.135
REMARK  5 active torsions:
REMARK  status: ('A' for Active; 'I' for Inactive)
REMARK    1  A    between atoms: C_4  and  C_5 
REMARK       I    between atoms: C_5  and  N_7 
REMARK    2  A    between atoms: N_7  and  C_8 
REMARK    3  A    between atoms: C_9  and  C_8 
REMARK    4  A    between atoms: C_22  and  S_23 
REMARK    5  A    between atoms: S_23  and  N_24 
ROOT
HETATM    1  C   UNK N   1     160.212 146.180 161.672  0.00  0.00     0.275 C 
HETATM    2  O   UNK N   1     159.688 145.086 161.817  0.00  0.00    -0.265 OA
HETATM    3  N   UNK N   1     160.187 146.804 160.469  0.00  0.00    -0.355 N 
HETATM    4  H   UNK N   1     160.647 147.667 160.372  0.00  0.00     0.162 HD
ENDROOT
BRANCH   3   5
HETATM    5  C   UNK N   1     159.505 146.244 159.325  0.00  0.00     0.128 C 
BRANCH   5   6
HETATM    6  C   UNK N   1     158.545 147.262 158.700  0.00  0.00     0.017 A 
HETATM    7  C   UNK N   1     158.022 146.709 157.379  0.00  0.00     0.022 A 
HETATM    8  C   UNK N   1     157.114 146.735 158.587  0.00  0.00    -0.007 A 
HETATM    9  C   UNK N   1     156.773 145.339 159.138  0.00  0.00     0.015 C 
HETATM   10  C   UNK N   1     156.003 147.745 158.522  0.00  0.00    -0.043 A 
HETATM   11  C   UNK N   1     155.524 145.335 160.046  0.00  0.00     0.006 C 
HETATM   12  C   UNK N   1     155.209 146.710 160.650  0.00  0.00     0.039 C 
HETATM   13  C   UNK N   1     155.051 147.714 159.548  0.00  0.00    -0.051 A 
HETATM   14  C   UNK N   1     153.956 148.583 159.519  0.00  0.00     0.007 A 
HETATM   15  C   UNK N   1     153.821 149.496 158.468  0.00  0.00     0.001 A 
HETATM   16  C   UNK N   1     154.774 149.536 157.444  0.00  0.00     0.001 A 
HETATM   17  C   UNK N   1     155.860 148.658 157.465  0.00  0.00     0.008 A 
ENDBRANCH   5   6
ENDBRANCH   3   5
BRANCH   1  18
HETATM   18  C   UNK N   1     160.871 146.832 162.806  0.00  0.00     0.144 A 
HETATM   19  O   UNK N   1     160.232 147.428 163.789  0.00  0.00    -0.308 OA
HETATM   20  C   UNK N   1     161.114 147.906 164.630  0.00  0.00     0.073 A 
HETATM   21  C   UNK N   1     160.774 148.658 165.868  0.00  0.00     0.078 C 
HETATM   22  C   UNK N   1     162.379 147.609 164.178  0.00  0.00     0.106 A 
HETATM   23  C   UNK N   1     162.241 146.912 163.000  0.00  0.00     0.070 A 
BRANCH  22  24
HETATM   24  S   UNK N   1     163.919 148.065 164.950  0.00  0.00     0.241 S 
HETATM   25  O   UNK N   1     163.924 147.827 166.467  0.00  0.00    -0.206 OA
HETATM   26  O   UNK N   1     164.224 149.565 164.846  0.00  0.00    -0.206 OA
BRANCH  24  27
HETATM   27  N   UNK N   1     165.362 147.248 164.353  0.00  0.00    -0.225 NA
HETATM   28  H   UNK N   1     165.492 146.372 164.859  0.00  0.00     0.136 HD
HETATM   29  H   UNK N   1     166.180 147.846 164.468  0.00  0.00     0.136 HD
ENDBRANCH  24  27
ENDBRANCH  22  24
ENDBRANCH   1  18
TORSDOF 5
ENDMDL
MODEL 9
REMARK VINA RESULT:      -6.4      2.195      3.644
REMARK  5 active torsions:
REMARK  status: ('A' for Active; 'I' for Inactive)
REMARK    1  A    between atoms: C_4  and  C_5 
REMARK       I    between atoms: C_5  and  N_7 
REMARK    2  A    between atoms: N_7  and  C_8 
REMARK    3  A    between atoms: C_9  and  C_8 
REMARK    4  A    between atoms: C_22  and  S_23 
REMARK    5  A    between atoms: S_23  and  N_24 
ROOT
HETATM    1  C   UNK N   1     168.905 155.096 154.084  0.00  0.00     0.275 C 
HETATM    2  O   UNK N   1     169.496 155.732 153.224  0.00  0.00    -0.265 OA
HETATM    3  N   UNK N   1     168.110 155.724 154.983  0.00  0.00    -0.355 N 
HETATM    4  H   UNK N   1     167.675 155.192 155.686  0.00  0.00     0.162 HD
ENDROOT
BRANCH   3   5
HETATM    5  C   UNK N   1     167.879 157.150 154.944  0.00  0.00     0.128 C 
BRANCH   5   6
HETATM    6  C   UNK N   1     166.425 157.485 155.295  0.00  0.00     0.017 A 
HETATM    7  C   UNK N   1     166.005 156.669 156.513  0.00  0.00     0.022 A 
HETATM    8  C   UNK N   1     166.284 158.146 156.666  0.00  0.00    -0.007 A 
HETATM    9  C   UNK N   1     167.545 158.459 157.493  0.00  0.00     0.015 C 
HETATM   10  C   UNK N   1     165.069 158.998 156.906  0.00  0.00    -0.043 A 
HETATM   11  C   UNK N   1     167.575 159.908 158.026  0.00  0.00     0.006 C 
HETATM   12  C   UNK N   1     166.691 160.870 157.221  0.00  0.00     0.039 C 
HETATM   13  C   UNK N   1     165.284 160.351 157.196  0.00  0.00    -0.051 A 
HETATM   14  C   UNK N   1     164.204 161.188 157.491  0.00  0.00     0.007 A 
HETATM   15  C   UNK N   1     162.903 160.674 157.481  0.00  0.00     0.001 A 
HETATM   16  C   UNK N   1     162.682 159.324 157.185  0.00  0.00     0.001 A 
HETATM   17  C   UNK N   1     163.762 158.484 156.904  0.00  0.00     0.008 A 
ENDBRANCH   5   6
ENDBRANCH   3   5
BRANCH   1  18
HETATM   18  C   UNK N   1     169.048 153.640 154.145  0.00  0.00     0.144 A 
HETATM   19  O   UNK N   1     170.068 152.975 153.649  0.00  0.00    -0.308 OA
HETATM   20  C   UNK N   1     169.882 151.698 153.869  0.00  0.00     0.073 A 
HETATM   21  C   UNK N   1     170.821 150.625 153.443  0.00  0.00     0.078 C 
HETATM   22  C   UNK N   1     168.692 151.523 154.537  0.00  0.00     0.106 A 
HETATM   23  C   UNK N   1     168.140 152.769 154.726  0.00  0.00     0.070 A 
BRANCH  22  24
HETATM   24  S   UNK N   1     167.974 149.972 155.041  0.00  0.00     0.241 S 
HETATM   25  O   UNK N   1     166.624 150.136 155.752  0.00  0.00    -0.206 OA
HETATM   26  O   UNK N   1     168.816 149.231 156.089  0.00  0.00    -0.206 OA
BRANCH  24  27
HETATM   27  N   UNK N   1     167.678 148.798 153.759  0.00  0.00    -0.225 NA
HETATM   28  H   UNK N   1     168.539 148.641 153.235  0.00  0.00     0.136 HD
HETATM   29  H   UNK N   1     166.942 149.132 153.137  0.00  0.00     0.136 HD
ENDBRANCH  24  27
ENDBRANCH  22  24
ENDBRANCH   1  18
TORSDOF 5
ENDMDL
