MODEL 1
REMARK VINA RESULT:      -5.0      0.000      0.000
REMARK  3 active torsions:
REMARK  status: ('A' for Active; 'I' for Inactive)
REMARK    1  A    between atoms: C_5  and  C_6 
REMARK    2  A    between atoms: C_6  and  N_7 
REMARK    3  A    between atoms: N_7  and  C_8 
ROOT
HETATM    1  C   UNK N   1     160.052 146.640 161.590  0.00  0.00     0.106 A 
HETATM    2  C   UNK N   1     159.426 145.520 162.145  0.00  0.00     0.073 A 
HETATM    3  C   UNK N   1     159.344 145.410 163.526  0.00  0.00     0.012 A 
HETATM    4  C   UNK N   1     158.669 144.235 164.134  0.00  0.00     0.068 C 
HETATM    5  N   UNK N   1     159.876 146.380 164.314  0.00  0.00    -0.322 N 
ATOM      6  HN  UNK N   1     159.814 146.294 165.329  1.00  0.00     0.169 HD
HETATM    7  C   UNK N   1     160.490 147.462 163.767  0.00  0.00     0.267 A 
HETATM    8  F   UNK N   1     161.017 148.415 164.570  0.00  0.00    -0.165 F 
HETATM    9  N   UNK N   1     160.573 147.589 162.414  0.00  0.00    -0.304 N 
ATOM     10  HN  UNK N   1     161.032 148.407 162.012  1.00  0.00     0.171 HD
ENDROOT
BRANCH   1  11
HETATM   11  N   UNK N   1     160.139 146.802 160.182  0.00  0.00    -0.371 N 
HETATM   12  H   UNK N   1     160.843 147.384 159.813  0.00  0.00     0.161 HD
BRANCH  11  13
HETATM   13  C   UNK N   1     159.232 146.140 159.269  0.00  0.00     0.167 C 
BRANCH  13  14
HETATM   14  C   UNK N   1     158.034 146.993 159.001  0.00  0.00     0.001 A 
HETATM   15  S   UNK N   1     156.608 146.955 159.839  0.00  0.00    -0.104 SA
HETATM   16  C   UNK N   1     155.773 148.149 159.046  0.00  0.00     0.056 A 
HETATM   17  C   UNK N   1     156.646 148.616 158.055  0.00  0.00    -0.055 A 
HETATM   18  C   UNK N   1     156.271 149.696 157.105  0.00  0.00     0.048 C 
HETATM   19  C   UNK N   1     157.917 147.978 158.023  0.00  0.00     0.023 A 
ENDBRANCH  13  14
ENDBRANCH  11  13
ENDBRANCH   1  11
TORSDOF 3
ENDMDL
MODEL 2
REMARK VINA RESULT:      -4.9      1.478      1.598
REMARK  3 active torsions:
REMARK  status: ('A' for Active; 'I' for Inactive)
REMARK    1  A    between atoms: C_5  and  C_6 
REMARK    2  A    between atoms: C_6  and  N_7 
REMARK    3  A    between atoms: N_7  and  C_8 
ROOT
HETATM    1  C   UNK N   1     160.244 146.655 161.324  0.00  0.00     0.106 A 
HETATM    2  C   UNK N   1     159.510 145.800 162.151  0.00  0.00     0.073 A 
HETATM    3  C   UNK N   1     160.024 145.461 163.394  0.00  0.00     0.012 A 
HETATM    4  C   UNK N   1     159.252 144.566 164.294  0.00  0.00     0.068 C 
HETATM    5  N   UNK N   1     161.228 145.952 163.785  0.00  0.00    -0.322 N 
ATOM      6  HN  UNK N   1     161.604 145.699 164.699  1.00  0.00     0.169 HD
HETATM    7  C   UNK N   1     161.940 146.776 162.971  0.00  0.00     0.267 A 
HETATM    8  F   UNK N   1     163.141 147.252 163.377  0.00  0.00    -0.165 F 
HETATM    9  N   UNK N   1     161.447 147.125 161.751  0.00  0.00    -0.304 N 
ATOM     10  HN  UNK N   1     161.986 147.748 161.149  1.00  0.00     0.171 HD
ENDROOT
BRANCH   1  11
HETATM   11  N   UNK N   1     159.744 147.044 160.053  0.00  0.00    -0.371 N 
HETATM   12  H   UNK N   1     159.881 147.971 159.752  0.00  0.00     0.161 HD
BRANCH  11  13
HETATM   13  C   UNK N   1     159.043 146.124 159.182  0.00  0.00     0.167 C 
BRANCH  13  14
HETATM   14  C   UNK N   1     158.246 146.868 158.158  0.00  0.00     0.001 A 
HETATM   15  S   UNK N   1     157.972 146.382 156.600  0.00  0.00    -0.104 SA
HETATM   16  C   UNK N   1     157.018 147.632 156.071  0.00  0.00     0.056 A 
HETATM   17  C   UNK N   1     156.900 148.498 157.166  0.00  0.00    -0.055 A 
HETATM   18  C   UNK N   1     156.123 149.763 157.102  0.00  0.00     0.048 C 
HETATM   19  C   UNK N   1     157.581 148.078 158.342  0.00  0.00     0.023 A 
ENDBRANCH  13  14
ENDBRANCH  11  13
ENDBRANCH   1  11
TORSDOF 3
ENDMDL
MODEL 3
REMARK VINA RESULT:      -4.9      1.896      2.443
REMARK  3 active torsions:
REMARK  status: ('A' for Active; 'I' for Inactive)
REMARK    1  A    between atoms: C_5  and  C_6 
REMARK    2  A    between atoms: C_6  and  N_7 
REMARK    3  A    between atoms: N_7  and  C_8 
ROOT
HETATM    1  C   UNK N   1     159.269 146.504 161.744  0.00  0.00     0.106 A 
HETATM    2  C   UNK N   1     160.581 146.909 162.002  0.00  0.00     0.073 A 
HETATM    3  C   UNK N   1     161.220 146.437 163.140  0.00  0.00     0.012 A 
HETATM    4  C   UNK N   1     162.620 146.844 163.423  0.00  0.00     0.068 C 
HETATM    5  N   UNK N   1     160.565 145.601 163.985  0.00  0.00    -0.322 N 
ATOM      6  HN  UNK N   1     161.038 145.257 164.822  1.00  0.00     0.169 HD
HETATM    7  C   UNK N   1     159.285 145.218 163.731  0.00  0.00     0.267 A 
HETATM    8  F   UNK N   1     158.648 144.387 164.589  0.00  0.00    -0.165 F 
HETATM    9  N   UNK N   1     158.646 145.665 162.616  0.00  0.00    -0.304 N 
ATOM     10  HN  UNK N   1     157.687 145.369 162.431  1.00  0.00     0.171 HD
ENDROOT
BRANCH   1  11
HETATM   11  N   UNK N   1     158.586 146.947 160.580  0.00  0.00    -0.371 N 
HETATM   12  H   UNK N   1     157.787 147.513 160.685  0.00  0.00     0.161 HD
BRANCH  11  13
HETATM   13  C   UNK N   1     159.024 146.599 159.245  0.00  0.00     0.167 C 
BRANCH  13  14
HETATM   14  C   UNK N   1     158.163 147.259 158.216  0.00  0.00     0.001 A 
HETATM   15  S   UNK N   1     157.935 146.738 156.662  0.00  0.00    -0.104 SA
HETATM   16  C   UNK N   1     156.872 147.892 156.123  0.00  0.00     0.056 A 
HETATM   17  C   UNK N   1     156.674 148.752 157.212  0.00  0.00    -0.055 A 
HETATM   18  C   UNK N   1     155.786 149.941 157.138  0.00  0.00     0.048 C 
HETATM   19  C   UNK N   1     157.391 148.405 158.391  0.00  0.00     0.023 A 
ENDBRANCH  13  14
ENDBRANCH  11  13
ENDBRANCH   1  11
TORSDOF 3
ENDMDL
MODEL 4
REMARK VINA RESULT:      -4.9     14.688     15.776
REMARK  3 active torsions:
REMARK  status: ('A' for Active; 'I' for Inactive)
REMARK    1  A    between atoms: C_5  and  C_6 
REMARK    2  A    between atoms: C_6  and  N_7 
REMARK    3  A    between atoms: N_7  and  C_8 
ROOT
HETATM    1  C   UNK N   1     167.886 153.164 151.298  0.00  0.00     0.106 A 
HETATM    2  C   UNK N   1     167.476 154.179 150.429  0.00  0.00     0.073 A 
HETATM    3  C   UNK N   1     167.435 153.924 149.066  0.00  0.00     0.012 A 
HETATM    4  C   UNK N   1     166.986 154.985 148.129  0.00  0.00     0.068 C 
HETATM    5  N   UNK N   1     167.799 152.703 148.596  0.00  0.00    -0.322 N 
ATOM      6  HN  UNK N   1     167.769 152.520 147.593  1.00  0.00     0.169 HD
HETATM    7  C   UNK N   1     168.206 151.723 149.446  0.00  0.00     0.267 A 
HETATM    8  F   UNK N   1     168.569 150.515 148.957  0.00  0.00    -0.165 F 
HETATM    9  N   UNK N   1     168.245 151.955 150.787  0.00  0.00    -0.304 N 
ATOM     10  HN  UNK N   1     168.546 151.212 151.418  1.00  0.00     0.171 HD
ENDROOT
BRANCH   1  11
HETATM   11  N   UNK N   1     167.922 153.377 152.701  0.00  0.00    -0.371 N 
HETATM   12  H   UNK N   1     167.303 152.870 153.275  0.00  0.00     0.161 HD
BRANCH  11  13
HETATM   13  C   UNK N   1     168.839 154.311 153.319  0.00  0.00     0.167 C 
BRANCH  13  14
HETATM   14  C   UNK N   1     168.094 155.432 153.971  0.00  0.00     0.001 A 
HETATM   15  S   UNK N   1     167.986 155.709 155.599  0.00  0.00    -0.104 SA
HETATM   16  C   UNK N   1     167.065 157.089 155.598  0.00  0.00     0.056 A 
HETATM   17  C   UNK N   1     166.810 157.364 154.247  0.00  0.00    -0.055 A 
HETATM   18  C   UNK N   1     165.997 158.528 153.810  0.00  0.00     0.048 C 
HETATM   19  C   UNK N   1     167.385 156.443 153.327  0.00  0.00     0.023 A 
ENDBRANCH  13  14
ENDBRANCH  11  13
ENDBRANCH   1  11
TORSDOF 3
ENDMDL
MODEL 5
REMARK VINA RESULT:      -4.7     11.849     12.817
REMARK  3 active torsions:
REMARK  status: ('A' for Active; 'I' for Inactive)
REMARK    1  A    between atoms: C_5  and  C_6 
REMARK    2  A    between atoms: C_6  and  N_7 
REMARK    3  A    between atoms: N_7  and  C_8 
ROOT
HETATM    1  C   UNK N   1     168.838 150.641 154.827  0.00  0.00     0.106 A 
HETATM    2  C   UNK N   1     168.704 149.806 155.940  0.00  0.00     0.073 A 
HETATM    3  C   UNK N   1     168.438 148.459 155.743  0.00  0.00     0.012 A 
HETATM    4  C   UNK N   1     168.308 147.553 156.914  0.00  0.00     0.068 C 
HETATM    5  N   UNK N   1     168.305 147.973 154.483  0.00  0.00    -0.322 N 
ATOM      6  HN  UNK N   1     168.109 146.982 154.342  1.00  0.00     0.169 HD
HETATM    7  C   UNK N   1     168.429 148.793 153.405  0.00  0.00     0.267 A 
HETATM    8  F   UNK N   1     168.289 148.290 152.156  0.00  0.00    -0.165 F 
HETATM    9  N   UNK N   1     168.697 150.116 153.580  0.00  0.00    -0.304 N 
ATOM     10  HN  UNK N   1     168.792 150.722 152.765  1.00  0.00     0.171 HD
ENDROOT
BRANCH   1  11
HETATM   11  N   UNK N   1     169.130 152.022 154.983  0.00  0.00    -0.371 N 
HETATM   12  H   UNK N   1     170.020 152.352 154.720  0.00  0.00     0.161 HD
BRANCH  11  13
HETATM   13  C   UNK N   1     168.165 152.962 155.513  0.00  0.00     0.167 C 
BRANCH  13  14
HETATM   14  C   UNK N   1     167.665 153.870 154.436  0.00  0.00     0.001 A 
HETATM   15  S   UNK N   1     168.221 153.929 152.879  0.00  0.00    -0.104 SA
HETATM   16  C   UNK N   1     167.223 155.100 152.259  0.00  0.00     0.056 A 
HETATM   17  C   UNK N   1     166.399 155.488 153.324  0.00  0.00    -0.055 A 
HETATM   18  C   UNK N   1     165.359 156.539 153.185  0.00  0.00     0.048 C 
HETATM   19  C   UNK N   1     166.636 154.803 154.548  0.00  0.00     0.023 A 
ENDBRANCH  13  14
ENDBRANCH  11  13
ENDBRANCH   1  11
TORSDOF 3
ENDMDL
MODEL 6
REMARK VINA RESULT:      -4.7      2.009      2.552
REMARK  3 active torsions:
REMARK  status: ('A' for Active; 'I' for Inactive)
REMARK    1  A    between atoms: C_5  and  C_6 
REMARK    2  A    between atoms: C_6  and  N_7 
REMARK    3  A    between atoms: N_7  and  C_8 
ROOT
HETATM    1  C   UNK N   1     159.285 146.010 160.200  0.00  0.00     0.106 A 
HETATM    2  C   UNK N   1     159.294 145.433 161.473  0.00  0.00     0.073 A 
HETATM    3  C   UNK N   1     160.288 145.795 162.370  0.00  0.00     0.012 A 
HETATM    4  C   UNK N   1     160.305 145.205 163.733  0.00  0.00     0.068 C 
HETATM    5  N   UNK N   1     161.237 146.693 162.000  0.00  0.00    -0.322 N 
ATOM      6  HN  UNK N   1     161.967 146.956 162.662  1.00  0.00     0.169 HD
HETATM    7  C   UNK N   1     161.227 147.244 160.757  0.00  0.00     0.267 A 
HETATM    8  F   UNK N   1     162.185 148.134 160.407  0.00  0.00    -0.165 F 
HETATM    9  N   UNK N   1     160.254 146.905 159.867  0.00  0.00    -0.304 N 
ATOM     10  HN  UNK N   1     160.252 147.327 158.938  1.00  0.00     0.171 HD
ENDROOT
BRANCH   1  11
HETATM   11  N   UNK N   1     158.273 145.682 159.259  0.00  0.00    -0.371 N 
HETATM   12  H   UNK N   1     158.428 144.934 158.637  0.00  0.00     0.161 HD
BRANCH  11  13
HETATM   13  C   UNK N   1     157.022 146.405 159.183  0.00  0.00     0.167 C 
BRANCH  13  14
HETATM   14  C   UNK N   1     156.979 147.263 157.959  0.00  0.00     0.001 A 
HETATM   15  S   UNK N   1     156.386 148.805 157.874  0.00  0.00    -0.104 SA
HETATM   16  C   UNK N   1     156.678 149.141 156.276  0.00  0.00     0.056 A 
HETATM   17  C   UNK N   1     157.273 147.983 155.757  0.00  0.00    -0.055 A 
HETATM   18  C   UNK N   1     157.684 147.867 154.333  0.00  0.00     0.048 C 
HETATM   19  C   UNK N   1     157.449 146.925 156.692  0.00  0.00     0.023 A 
ENDBRANCH  13  14
ENDBRANCH  11  13
ENDBRANCH   1  11
TORSDOF 3
ENDMDL
MODEL 7
REMARK VINA RESULT:      -4.7      2.188      3.048
REMARK  3 active torsions:
REMARK  status: ('A' for Active; 'I' for Inactive)
REMARK    1  A    between atoms: C_5  and  C_6 
REMARK    2  A    between atoms: C_6  and  N_7 
REMARK    3  A    between atoms: N_7  and  C_8 
ROOT
HETATM    1  C   UNK N   1     157.542 146.543 160.644  0.00  0.00     0.106 A 
HETATM    2  C   UNK N   1     157.825 145.295 160.082  0.00  0.00     0.073 A 
HETATM    3  C   UNK N   1     159.073 144.727 160.296  0.00  0.00     0.012 A 
HETATM    4  C   UNK N   1     159.388 143.395 159.721  0.00  0.00     0.068 C 
HETATM    5  N   UNK N   1     159.999 145.390 161.036  0.00  0.00    -0.322 N 
ATOM      6  HN  UNK N   1     160.916 144.970 161.191  1.00  0.00     0.169 HD
HETATM    7  C   UNK N   1     159.718 146.608 161.572  0.00  0.00     0.267 A 
HETATM    8  F   UNK N   1     160.656 147.254 162.303  0.00  0.00    -0.165 F 
HETATM    9  N   UNK N   1     158.496 147.176 161.378  0.00  0.00    -0.304 N 
ATOM     10  HN  UNK N   1     158.293 148.087 161.788  1.00  0.00     0.171 HD
ENDROOT
BRANCH   1  11
HETATM   11  N   UNK N   1     156.270 147.149 160.466  0.00  0.00    -0.371 N 
HETATM   12  H   UNK N   1     155.948 147.785 161.145  0.00  0.00     0.161 HD
BRANCH  11  13
HETATM   13  C   UNK N   1     155.431 146.867 159.320  0.00  0.00     0.167 C 
BRANCH  13  14
HETATM   14  C   UNK N   1     155.877 147.656 158.131  0.00  0.00     0.001 A 
HETATM   15  S   UNK N   1     155.704 149.290 157.929  0.00  0.00    -0.104 SA
HETATM   16  C   UNK N   1     156.427 149.477 156.448  0.00  0.00     0.056 A 
HETATM   17  C   UNK N   1     156.832 148.190 156.067  0.00  0.00    -0.055 A 
HETATM   18  C   UNK N   1     157.519 147.919 154.779  0.00  0.00     0.048 C 
HETATM   19  C   UNK N   1     156.531 147.163 157.005  0.00  0.00     0.023 A 
ENDBRANCH  13  14
ENDBRANCH  11  13
ENDBRANCH   1  11
TORSDOF 3
ENDMDL
MODEL 8
REMARK VINA RESULT:      -4.6      3.322      6.638
REMARK  3 active torsions:
REMARK  status: ('A' for Active; 'I' for Inactive)
REMARK    1  A    between atoms: C_5  and  C_6 
REMARK    2  A    between atoms: C_6  and  N_7 
REMARK    3  A    between atoms: N_7  and  C_8 
ROOT
HETATM    1  C   UNK N   1     157.757 147.703 158.689  0.00  0.00     0.106 A 
HETATM    2  C   UNK N   1     158.090 146.973 157.544  0.00  0.00     0.073 A 
HETATM    3  C   UNK N   1     157.649 147.421 156.308  0.00  0.00     0.012 A 
HETATM    4  C   UNK N   1     158.006 146.667 155.078  0.00  0.00     0.068 C 
HETATM    5  N   UNK N   1     156.898 148.549 156.226  0.00  0.00    -0.322 N 
ATOM      6  HN  UNK N   1     156.575 148.874 155.315  1.00  0.00     0.169 HD
HETATM    7  C   UNK N   1     156.571 149.249 157.345  0.00  0.00     0.267 A 
HETATM    8  F   UNK N   1     155.818 150.369 157.242  0.00  0.00    -0.165 F 
HETATM    9  N   UNK N   1     157.002 148.828 158.565  0.00  0.00    -0.304 N 
ATOM     10  HN  UNK N   1     156.756 149.362 159.399  1.00  0.00     0.171 HD
ENDROOT
BRANCH   1  11
HETATM   11  N   UNK N   1     158.206 147.291 159.971  0.00  0.00    -0.371 N 
HETATM   12  H   UNK N   1     157.719 147.604 160.768  0.00  0.00     0.161 HD
BRANCH  11  13
HETATM   13  C   UNK N   1     159.352 146.425 160.150  0.00  0.00     0.167 C 
BRANCH  13  14
HETATM   14  C   UNK N   1     159.630 146.205 161.602  0.00  0.00     0.001 A 
HETATM   15  S   UNK N   1     160.493 147.215 162.589  0.00  0.00    -0.104 SA
HETATM   16  C   UNK N   1     160.374 146.390 164.023  0.00  0.00     0.056 A 
HETATM   17  C   UNK N   1     159.619 145.246 163.732  0.00  0.00    -0.055 A 
HETATM   18  C   UNK N   1     159.291 144.224 164.759  0.00  0.00     0.048 C 
HETATM   19  C   UNK N   1     159.194 145.134 162.379  0.00  0.00     0.023 A 
ENDBRANCH  13  14
ENDBRANCH  11  13
ENDBRANCH   1  11
TORSDOF 3
ENDMDL
MODEL 9
REMARK VINA RESULT:      -4.6      2.212      3.366
REMARK  3 active torsions:
REMARK  status: ('A' for Active; 'I' for Inactive)
REMARK    1  A    between atoms: C_5  and  C_6 
REMARK    2  A    between atoms: C_6  and  N_7 
REMARK    3  A    between atoms: N_7  and  C_8 
ROOT
HETATM    1  C   UNK N   1     158.856 146.791 159.378  0.00  0.00     0.106 A 
HETATM    2  C   UNK N   1     158.925 145.558 158.722  0.00  0.00     0.073 A 
HETATM    3  C   UNK N   1     159.341 144.441 159.431  0.00  0.00     0.012 A 
HETATM    4  C   UNK N   1     159.406 143.119 158.756  0.00  0.00     0.068 C 
HETATM    5  N   UNK N   1     159.680 144.559 160.741  0.00  0.00    -0.322 N 
ATOM      6  HN  UNK N   1     159.986 143.735 161.259  1.00  0.00     0.169 HD
HETATM    7  C   UNK N   1     159.617 145.762 161.369  0.00  0.00     0.267 A 
HETATM    8  F   UNK N   1     159.964 145.860 162.674  0.00  0.00    -0.165 F 
HETATM    9  N   UNK N   1     159.205 146.868 160.690  0.00  0.00    -0.304 N 
ATOM     10  HN  UNK N   1     159.157 147.766 161.172  1.00  0.00     0.171 HD
ENDROOT
BRANCH   1  11
HETATM   11  N   UNK N   1     158.416 147.955 158.694  0.00  0.00    -0.371 N 
HETATM   12  H   UNK N   1     158.640 148.838 159.067  0.00  0.00     0.161 HD
BRANCH  11  13
HETATM   13  C   UNK N   1     157.651 147.890 157.467  0.00  0.00     0.167 C 
BRANCH  13  14
HETATM   14  C   UNK N   1     156.232 148.294 157.705  0.00  0.00     0.001 A 
HETATM   15  S   UNK N   1     155.024 148.314 156.574  0.00  0.00    -0.104 SA
HETATM   16  C   UNK N   1     153.754 148.817 157.514  0.00  0.00     0.056 A 
HETATM   17  C   UNK N   1     154.288 148.992 158.797  0.00  0.00    -0.055 A 
HETATM   18  C   UNK N   1     153.468 149.454 159.947  0.00  0.00     0.048 C 
HETATM   19  C   UNK N   1     155.676 148.699 158.917  0.00  0.00     0.023 A 
ENDBRANCH  13  14
ENDBRANCH  11  13
ENDBRANCH   1  11
TORSDOF 3
ENDMDL
