MODEL 1
REMARK VINA RESULT:      -6.0      0.000      0.000
REMARK  6 active torsions:
REMARK  status: ('A' for Active; 'I' for Inactive)
REMARK    1  A    between atoms: C_2  and  N_3 
REMARK    2  A    between atoms: N_3  and  S_4 
REMARK    3  A    between atoms: S_4  and  C_7 
REMARK    4  A    between atoms: C_11  and  C_12 
REMARK       I    between atoms: C_12  and  N_14 
REMARK    5  A    between atoms: C_18  and  C_20 
REMARK    6  A    between atoms: C_20  and  O_21 
ROOT
HETATM    1  C   UNK N   1     166.602 156.061 153.763  0.00  0.00     0.075 A 
HETATM    2  C   UNK N   1     167.697 156.842 153.389  0.00  0.00     0.025 A 
HETATM    3  C   UNK N   1     168.987 156.426 153.700  0.00  0.00     0.003 A 
HETATM    4  C   UNK N   1     169.184 155.230 154.389  0.00  0.00     0.017 A 
HETATM    5  C   UNK N   1     168.100 154.427 154.779  0.00  0.00     0.033 A 
HETATM    6  C   UNK N   1     166.800 154.860 154.457  0.00  0.00     0.041 A 
ENDROOT
BRANCH   5   7
HETATM    7  C   UNK N   1     168.282 153.126 155.512  0.00  0.00     0.253 C 
HETATM    8  O   UNK N   1     168.040 153.111 156.714  0.00  0.00    -0.267 OA
HETATM    9  N   UNK N   1     168.690 151.962 154.903  0.00  0.00    -0.347 N 
HETATM   10  C   UNK N   1     169.020 151.904 153.490  0.00  0.00     0.126 C 
HETATM   11  C   UNK N   1     168.810 150.739 155.696  0.00  0.00     0.137 C 
HETATM   12  C   UNK N   1     170.387 151.255 153.296  0.00  0.00     0.021 C 
HETATM   13  C   UNK N   1     170.503 149.917 154.046  0.00  0.00     0.014 C 
HETATM   14  C   UNK N   1     169.248 149.535 154.849  0.00  0.00    -0.006 C 
HETATM   15  C   UNK N   1     169.586 148.379 155.771  0.00  0.00     0.019 C 
BRANCH  14  16
HETATM   16  C   UNK N   1     168.095 149.120 153.929  0.00  0.00     0.175 C 
BRANCH  16  17
HETATM   17  O   UNK N   1     166.881 149.083 154.617  0.00  0.00    -0.400 OA
HETATM   18  H   UNK N   1     166.985 149.509 155.482  0.00  0.00     0.209 HD
ENDBRANCH  16  17
ENDBRANCH  14  16
ENDBRANCH   5   7
BRANCH   1  19
HETATM   19  S   UNK N   1     164.952 156.632 153.388  0.00  0.00     0.241 S 
HETATM   20  O   UNK N   1     164.470 156.197 151.996  0.00  0.00    -0.206 OA
HETATM   21  O   UNK N   1     164.852 158.163 153.298  0.00  0.00    -0.206 OA
BRANCH  19  22
HETATM   22  N   UNK N   1     163.668 156.142 154.496  0.00  0.00    -0.216 NA
HETATM   23  H   UNK N   1     162.783 156.042 154.000  0.00  0.00     0.139 HD
BRANCH  22  24
HETATM   24  C   UNK N   1     163.575 157.174 155.514  0.00  0.00     0.100 C 
HETATM   25  C   UNK N   1     164.324 156.736 156.753  0.00  0.00     0.021 C 
ENDBRANCH  22  24
ENDBRANCH  19  22
ENDBRANCH   1  19
TORSDOF 6
ENDMDL
MODEL 2
REMARK VINA RESULT:      -6.0      3.552      6.526
REMARK  6 active torsions:
REMARK  status: ('A' for Active; 'I' for Inactive)
REMARK    1  A    between atoms: C_2  and  N_3 
REMARK    2  A    between atoms: N_3  and  S_4 
REMARK    3  A    between atoms: S_4  and  C_7 
REMARK    4  A    between atoms: C_11  and  C_12 
REMARK       I    between atoms: C_12  and  N_14 
REMARK    5  A    between atoms: C_18  and  C_20 
REMARK    6  A    between atoms: C_20  and  O_21 
ROOT
HETATM    1  C   UNK N   1     169.397 150.717 151.115  0.00  0.00     0.075 A 
HETATM    2  C   UNK N   1     170.599 150.079 151.426  0.00  0.00     0.025 A 
HETATM    3  C   UNK N   1     171.076 150.091 152.732  0.00  0.00     0.003 A 
HETATM    4  C   UNK N   1     170.352 150.745 153.729  0.00  0.00     0.017 A 
HETATM    5  C   UNK N   1     169.142 151.397 153.442  0.00  0.00     0.033 A 
HETATM    6  C   UNK N   1     168.672 151.375 152.116  0.00  0.00     0.041 A 
ENDROOT
BRANCH   5   7
HETATM    7  C   UNK N   1     168.334 152.100 154.498  0.00  0.00     0.253 C 
HETATM    8  O   UNK N   1     167.605 151.415 155.206  0.00  0.00    -0.267 OA
HETATM    9  N   UNK N   1     168.382 153.458 154.714  0.00  0.00    -0.347 N 
HETATM   10  C   UNK N   1     169.201 154.340 153.900  0.00  0.00     0.126 C 
HETATM   11  C   UNK N   1     167.580 154.046 155.785  0.00  0.00     0.137 C 
HETATM   12  C   UNK N   1     168.364 155.506 153.383  0.00  0.00     0.021 C 
HETATM   13  C   UNK N   1     167.582 156.201 154.512  0.00  0.00     0.014 C 
HETATM   14  C   UNK N   1     167.780 155.564 155.899  0.00  0.00    -0.006 C 
HETATM   15  C   UNK N   1     166.745 156.130 156.853  0.00  0.00     0.019 C 
BRANCH  14  16
HETATM   16  C   UNK N   1     169.180 155.849 156.454  0.00  0.00     0.175 C 
BRANCH  16  17
HETATM   17  O   UNK N   1     169.510 154.963 157.483  0.00  0.00    -0.400 OA
HETATM   18  H   UNK N   1     169.656 155.458 158.303  0.00  0.00     0.209 HD
ENDBRANCH  16  17
ENDBRANCH  14  16
ENDBRANCH   5   7
BRANCH   1  19
HETATM   19  S   UNK N   1     168.823 150.722 149.424  0.00  0.00     0.241 S 
HETATM   20  O   UNK N   1     168.222 149.376 148.991  0.00  0.00    -0.206 OA
HETATM   21  O   UNK N   1     169.957 150.908 148.404  0.00  0.00    -0.206 OA
BRANCH  19  22
HETATM   22  N   UNK N   1     167.607 151.929 148.999  0.00  0.00    -0.216 NA
HETATM   23  H   UNK N   1     166.989 151.577 148.268  0.00  0.00     0.139 HD
BRANCH  22  24
HETATM   24  C   UNK N   1     168.326 153.107 148.542  0.00  0.00     0.100 C 
HETATM   25  C   UNK N   1     167.515 154.348 148.848  0.00  0.00     0.021 C 
ENDBRANCH  22  24
ENDBRANCH  19  22
ENDBRANCH   1  19
TORSDOF 6
ENDMDL
MODEL 3
REMARK VINA RESULT:      -5.9      3.577      5.757
REMARK  6 active torsions:
REMARK  status: ('A' for Active; 'I' for Inactive)
REMARK    1  A    between atoms: C_2  and  N_3 
REMARK    2  A    between atoms: N_3  and  S_4 
REMARK    3  A    between atoms: S_4  and  C_7 
REMARK    4  A    between atoms: C_11  and  C_12 
REMARK       I    between atoms: C_12  and  N_14 
REMARK    5  A    between atoms: C_18  and  C_20 
REMARK    6  A    between atoms: C_20  and  O_21 
ROOT
HETATM    1  C   UNK N   1     165.217 159.809 156.780  0.00  0.00     0.075 A 
HETATM    2  C   UNK N   1     164.239 159.349 157.663  0.00  0.00     0.025 A 
HETATM    3  C   UNK N   1     163.697 158.078 157.502  0.00  0.00     0.003 A 
HETATM    4  C   UNK N   1     164.131 157.267 156.454  0.00  0.00     0.017 A 
HETATM    5  C   UNK N   1     165.112 157.708 155.550  0.00  0.00     0.033 A 
HETATM    6  C   UNK N   1     165.651 158.995 155.727  0.00  0.00     0.041 A 
ENDROOT
BRANCH   5   7
HETATM    7  C   UNK N   1     165.608 156.851 154.418  0.00  0.00     0.253 C 
HETATM    8  O   UNK N   1     165.152 157.064 153.300  0.00  0.00    -0.267 OA
HETATM    9  N   UNK N   1     166.549 155.858 154.572  0.00  0.00    -0.347 N 
HETATM   10  C   UNK N   1     167.117 155.527 155.867  0.00  0.00     0.126 C 
HETATM   11  C   UNK N   1     166.989 155.097 153.404  0.00  0.00     0.137 C 
HETATM   12  C   UNK N   1     167.014 154.026 156.118  0.00  0.00     0.021 C 
HETATM   13  C   UNK N   1     167.561 153.203 154.938  0.00  0.00     0.014 C 
HETATM   14  C   UNK N   1     168.060 154.053 153.757  0.00  0.00    -0.006 C 
HETATM   15  C   UNK N   1     168.283 153.150 152.559  0.00  0.00     0.019 C 
BRANCH  14  16
HETATM   16  C   UNK N   1     169.372 154.771 154.093  0.00  0.00     0.175 C 
BRANCH  16  17
HETATM   17  O   UNK N   1     169.639 155.798 153.185  0.00  0.00    -0.400 OA
HETATM   18  H   UNK N   1     170.578 155.781 152.943  0.00  0.00     0.209 HD
ENDBRANCH  16  17
ENDBRANCH  14  16
ENDBRANCH   5   7
BRANCH   1  19
HETATM   19  S   UNK N   1     165.871 161.459 156.984  0.00  0.00     0.241 S 
HETATM   20  O   UNK N   1     165.148 162.260 158.076  0.00  0.00    -0.206 OA
HETATM   21  O   UNK N   1     165.662 162.345 155.746  0.00  0.00    -0.206 OA
BRANCH  19  22
HETATM   22  N   UNK N   1     167.588 161.593 157.372  0.00  0.00    -0.216 NA
HETATM   23  H   UNK N   1     168.153 161.098 156.683  0.00  0.00     0.139 HD
BRANCH  22  24
HETATM   24  C   UNK N   1     167.767 161.018 158.694  0.00  0.00     0.100 C 
HETATM   25  C   UNK N   1     168.446 159.671 158.576  0.00  0.00     0.021 C 
ENDBRANCH  22  24
ENDBRANCH  19  22
ENDBRANCH   1  19
TORSDOF 6
ENDMDL
MODEL 4
REMARK VINA RESULT:      -5.6     12.353     14.071
REMARK  6 active torsions:
REMARK  status: ('A' for Active; 'I' for Inactive)
REMARK    1  A    between atoms: C_2  and  N_3 
REMARK    2  A    between atoms: N_3  and  S_4 
REMARK    3  A    between atoms: S_4  and  C_7 
REMARK    4  A    between atoms: C_11  and  C_12 
REMARK       I    between atoms: C_12  and  N_14 
REMARK    5  A    between atoms: C_18  and  C_20 
REMARK    6  A    between atoms: C_20  and  O_21 
ROOT
HETATM    1  C   UNK N   1     154.728 146.842 153.439  0.00  0.00     0.075 A 
HETATM    2  C   UNK N   1     153.426 147.267 153.708  0.00  0.00     0.025 A 
HETATM    3  C   UNK N   1     153.146 147.950 154.886  0.00  0.00     0.003 A 
HETATM    4  C   UNK N   1     154.168 148.207 155.799  0.00  0.00     0.017 A 
HETATM    5  C   UNK N   1     155.486 147.787 155.554  0.00  0.00     0.033 A 
HETATM    6  C   UNK N   1     155.754 147.098 154.357  0.00  0.00     0.041 A 
ENDROOT
BRANCH   5   7
HETATM    7  C   UNK N   1     156.611 148.059 156.514  0.00  0.00     0.253 C 
HETATM    8  O   UNK N   1     157.072 149.195 156.544  0.00  0.00    -0.267 OA
HETATM    9  N   UNK N   1     157.135 147.109 157.361  0.00  0.00    -0.347 N 
HETATM   10  C   UNK N   1     156.661 145.736 157.367  0.00  0.00     0.126 C 
HETATM   11  C   UNK N   1     158.210 147.478 158.280  0.00  0.00     0.137 C 
HETATM   12  C   UNK N   1     157.839 144.773 157.250  0.00  0.00     0.021 C 
HETATM   13  C   UNK N   1     158.944 145.085 158.274  0.00  0.00     0.014 C 
HETATM   14  C   UNK N   1     158.650 146.303 159.166  0.00  0.00    -0.006 C 
HETATM   15  C   UNK N   1     159.916 146.689 159.907  0.00  0.00     0.019 C 
BRANCH  14  16
HETATM   16  C   UNK N   1     157.546 146.000 160.186  0.00  0.00     0.175 C 
BRANCH  16  17
HETATM   17  O   UNK N   1     157.195 147.141 160.911  0.00  0.00    -0.400 OA
HETATM   18  H   UNK N   1     157.996 147.565 161.257  0.00  0.00     0.209 HD
ENDBRANCH  16  17
ENDBRANCH  14  16
ENDBRANCH   5   7
BRANCH   1  19
HETATM   19  S   UNK N   1     155.057 145.932 151.938  0.00  0.00     0.241 S 
HETATM   20  O   UNK N   1     154.635 146.693 150.671  0.00  0.00    -0.206 OA
HETATM   21  O   UNK N   1     154.233 144.640 151.824  0.00  0.00    -0.206 OA
BRANCH  19  22
HETATM   22  N   UNK N   1     156.730 145.448 151.650  0.00  0.00    -0.216 NA
HETATM   23  H   UNK N   1     156.928 145.412 150.651  0.00  0.00     0.139 HD
BRANCH  22  24
HETATM   24  C   UNK N   1     156.900 144.139 152.257  0.00  0.00     0.100 C 
HETATM   25  C   UNK N   1     157.886 144.231 153.400  0.00  0.00     0.021 C 
ENDBRANCH  22  24
ENDBRANCH  19  22
ENDBRANCH   1  19
TORSDOF 6
ENDMDL
MODEL 5
REMARK VINA RESULT:      -5.6      3.322      8.115
REMARK  6 active torsions:
REMARK  status: ('A' for Active; 'I' for Inactive)
REMARK    1  A    between atoms: C_2  and  N_3 
REMARK    2  A    between atoms: N_3  and  S_4 
REMARK    3  A    between atoms: S_4  and  C_7 
REMARK    4  A    between atoms: C_11  and  C_12 
REMARK       I    between atoms: C_12  and  N_14 
REMARK    5  A    between atoms: C_18  and  C_20 
REMARK    6  A    between atoms: C_20  and  O_21 
ROOT
HETATM    1  C   UNK N   1     166.123 154.535 155.057  0.00  0.00     0.075 A 
HETATM    2  C   UNK N   1     166.412 155.416 154.014  0.00  0.00     0.025 A 
HETATM    3  C   UNK N   1     165.409 156.223 153.487  0.00  0.00     0.003 A 
HETATM    4  C   UNK N   1     164.114 156.146 154.000  0.00  0.00     0.017 A 
HETATM    5  C   UNK N   1     163.797 155.265 155.047  0.00  0.00     0.033 A 
HETATM    6  C   UNK N   1     164.823 154.457 155.571  0.00  0.00     0.041 A 
ENDROOT
BRANCH   5   7
HETATM    7  C   UNK N   1     162.414 155.169 155.629  0.00  0.00     0.253 C 
HETATM    8  O   UNK N   1     161.650 154.340 155.147  0.00  0.00    -0.267 OA
HETATM    9  N   UNK N   1     161.972 155.950 156.673  0.00  0.00    -0.347 N 
HETATM   10  C   UNK N   1     162.807 156.971 157.280  0.00  0.00     0.126 C 
HETATM   11  C   UNK N   1     160.617 155.762 157.189  0.00  0.00     0.137 C 
HETATM   12  C   UNK N   1     162.055 158.297 157.343  0.00  0.00     0.021 C 
HETATM   13  C   UNK N   1     160.659 158.139 157.971  0.00  0.00     0.014 C 
HETATM   14  C   UNK N   1     160.307 156.695 158.369  0.00  0.00    -0.006 C 
HETATM   15  C   UNK N   1     158.826 156.618 158.684  0.00  0.00     0.019 C 
BRANCH  14  16
HETATM   16  C   UNK N   1     161.104 156.239 159.596  0.00  0.00     0.175 C 
BRANCH  16  17
HETATM   17  O   UNK N   1     160.904 154.882 159.858  0.00  0.00    -0.400 OA
HETATM   18  H   UNK N   1     160.161 154.776 160.473  0.00  0.00     0.209 HD
ENDBRANCH  16  17
ENDBRANCH  14  16
ENDBRANCH   5   7
BRANCH   1  19
HETATM   19  S   UNK N   1     167.417 153.481 155.694  0.00  0.00     0.241 S 
HETATM   20  O   UNK N   1     167.052 151.990 155.649  0.00  0.00    -0.206 OA
HETATM   21  O   UNK N   1     167.689 153.700 157.190  0.00  0.00    -0.206 OA
BRANCH  19  22
HETATM   22  N   UNK N   1     168.994 153.594 154.910  0.00  0.00    -0.216 NA
HETATM   23  H   UNK N   1     169.091 154.483 154.419  0.00  0.00     0.139 HD
BRANCH  22  24
HETATM   24  C   UNK N   1     169.085 152.481 153.982  0.00  0.00     0.100 C 
HETATM   25  C   UNK N   1     168.586 152.911 152.620  0.00  0.00     0.021 C 
ENDBRANCH  22  24
ENDBRANCH  19  22
ENDBRANCH   1  19
TORSDOF 6
ENDMDL
MODEL 6
REMARK VINA RESULT:      -5.5      3.577      8.325
REMARK  6 active torsions:
REMARK  status: ('A' for Active; 'I' for Inactive)
REMARK    1  A    between atoms: C_2  and  N_3 
REMARK    2  A    between atoms: N_3  and  S_4 
REMARK    3  A    between atoms: S_4  and  C_7 
REMARK    4  A    between atoms: C_11  and  C_12 
REMARK       I    between atoms: C_12  and  N_14 
REMARK    5  A    between atoms: C_18  and  C_20 
REMARK    6  A    between atoms: C_20  and  O_21 
ROOT
HETATM    1  C   UNK N   1     167.755 155.006 154.966  0.00  0.00     0.075 A 
HETATM    2  C   UNK N   1     166.806 154.005 155.178  0.00  0.00     0.025 A 
HETATM    3  C   UNK N   1     165.892 154.122 156.220  0.00  0.00     0.003 A 
HETATM    4  C   UNK N   1     165.929 155.240 157.053  0.00  0.00     0.017 A 
HETATM    5  C   UNK N   1     166.875 156.260 156.862  0.00  0.00     0.033 A 
HETATM    6  C   UNK N   1     167.792 156.128 155.803  0.00  0.00     0.041 A 
ENDROOT
BRANCH   5   7
HETATM    7  C   UNK N   1     166.931 157.482 157.737  0.00  0.00     0.253 C 
HETATM    8  O   UNK N   1     167.725 157.479 158.671  0.00  0.00    -0.267 OA
HETATM    9  N   UNK N   1     166.151 158.598 157.534  0.00  0.00    -0.347 N 
HETATM   10  C   UNK N   1     165.170 158.670 156.466  0.00  0.00     0.126 C 
HETATM   11  C   UNK N   1     166.299 159.750 158.422  0.00  0.00     0.137 C 
HETATM   12  C   UNK N   1     163.819 159.111 157.022  0.00  0.00     0.021 C 
HETATM   13  C   UNK N   1     163.936 160.380 157.885  0.00  0.00     0.014 C 
HETATM   14  C   UNK N   1     165.373 160.911 158.030  0.00  0.00    -0.006 C 
HETATM   15  C   UNK N   1     165.402 161.959 159.127  0.00  0.00     0.019 C 
BRANCH  14  16
HETATM   16  C   UNK N   1     165.876 161.540 156.726  0.00  0.00     0.175 C 
BRANCH  16  17
HETATM   17  O   UNK N   1     167.231 161.869 156.808  0.00  0.00    -0.400 OA
HETATM   18  H   UNK N   1     167.338 162.672 157.340  0.00  0.00     0.209 HD
ENDBRANCH  16  17
ENDBRANCH  14  16
ENDBRANCH   5   7
BRANCH   1  19
HETATM   19  S   UNK N   1     168.944 154.817 153.646  0.00  0.00     0.241 S 
HETATM   20  O   UNK N   1     169.691 156.120 153.322  0.00  0.00    -0.206 OA
HETATM   21  O   UNK N   1     168.294 154.477 152.296  0.00  0.00    -0.206 OA
BRANCH  19  22
HETATM   22  N   UNK N   1     170.205 153.605 153.878  0.00  0.00    -0.216 NA
HETATM   23  H   UNK N   1     171.011 153.806 153.286  0.00  0.00     0.139 HD
BRANCH  22  24
HETATM   24  C   UNK N   1     169.622 152.319 153.535  0.00  0.00     0.100 C 
HETATM   25  C   UNK N   1     170.574 151.209 153.923  0.00  0.00     0.021 C 
ENDBRANCH  22  24
ENDBRANCH  19  22
ENDBRANCH   1  19
TORSDOF 6
ENDMDL
MODEL 7
REMARK VINA RESULT:      -5.5     12.343     13.981
REMARK  6 active torsions:
REMARK  status: ('A' for Active; 'I' for Inactive)
REMARK    1  A    between atoms: C_2  and  N_3 
REMARK    2  A    between atoms: N_3  and  S_4 
REMARK    3  A    between atoms: S_4  and  C_7 
REMARK    4  A    between atoms: C_11  and  C_12 
REMARK       I    between atoms: C_12  and  N_14 
REMARK    5  A    between atoms: C_18  and  C_20 
REMARK    6  A    between atoms: C_20  and  O_21 
ROOT
HETATM    1  C   UNK N   1     159.712 145.714 161.648  0.00  0.00     0.075 A 
HETATM    2  C   UNK N   1     158.892 144.813 162.330  0.00  0.00     0.025 A 
HETATM    3  C   UNK N   1     157.988 144.025 161.625  0.00  0.00     0.003 A 
HETATM    4  C   UNK N   1     157.900 144.140 160.238  0.00  0.00     0.017 A 
HETATM    5  C   UNK N   1     158.712 145.041 159.530  0.00  0.00     0.033 A 
HETATM    6  C   UNK N   1     159.623 145.830 160.255  0.00  0.00     0.041 A 
ENDROOT
BRANCH   5   7
HETATM    7  C   UNK N   1     158.648 145.178 158.033  0.00  0.00     0.253 C 
HETATM    8  O   UNK N   1     159.359 144.438 157.363  0.00  0.00    -0.267 OA
HETATM    9  N   UNK N   1     157.830 146.076 157.386  0.00  0.00    -0.347 N 
HETATM   10  C   UNK N   1     156.978 147.004 158.110  0.00  0.00     0.126 C 
HETATM   11  C   UNK N   1     157.817 146.115 155.925  0.00  0.00     0.137 C 
HETATM   12  C   UNK N   1     157.193 148.425 157.596  0.00  0.00     0.021 C 
HETATM   13  C   UNK N   1     157.090 148.506 156.063  0.00  0.00     0.014 C 
HETATM   14  C   UNK N   1     156.827 147.154 155.378  0.00  0.00    -0.006 C 
HETATM   15  C   UNK N   1     157.048 147.308 153.885  0.00  0.00     0.019 C 
BRANCH  14  16
HETATM   16  C   UNK N   1     155.395 146.666 155.624  0.00  0.00     0.175 C 
BRANCH  16  17
HETATM   17  O   UNK N   1     154.465 147.684 155.402  0.00  0.00    -0.400 OA
HETATM   18  H   UNK N   1     154.919 148.471 155.063  0.00  0.00     0.209 HD
ENDBRANCH  16  17
ENDBRANCH  14  16
ENDBRANCH   5   7
BRANCH   1  19
HETATM   19  S   UNK N   1     160.839 146.743 162.575  0.00  0.00     0.241 S 
HETATM   20  O   UNK N   1     161.814 147.522 161.680  0.00  0.00    -0.206 OA
HETATM   21  O   UNK N   1     161.797 145.935 163.465  0.00  0.00    -0.206 OA
BRANCH  19  22
HETATM   22  N   UNK N   1     160.120 147.954 163.640  0.00  0.00    -0.216 NA
HETATM   23  H   UNK N   1     160.492 148.881 163.435  0.00  0.00     0.139 HD
BRANCH  22  24
HETATM   24  C   UNK N   1     160.440 147.561 165.001  0.00  0.00     0.100 C 
HETATM   25  C   UNK N   1     161.003 148.746 165.755  0.00  0.00     0.021 C 
ENDBRANCH  22  24
ENDBRANCH  19  22
ENDBRANCH   1  19
TORSDOF 6
ENDMDL
MODEL 8
REMARK VINA RESULT:      -5.5      2.678      7.603
REMARK  6 active torsions:
REMARK  status: ('A' for Active; 'I' for Inactive)
REMARK    1  A    between atoms: C_2  and  N_3 
REMARK    2  A    between atoms: N_3  and  S_4 
REMARK    3  A    between atoms: S_4  and  C_7 
REMARK    4  A    between atoms: C_11  and  C_12 
REMARK       I    between atoms: C_12  and  N_14 
REMARK    5  A    between atoms: C_18  and  C_20 
REMARK    6  A    between atoms: C_20  and  O_21 
ROOT
HETATM    1  C   UNK N   1     167.883 152.880 154.382  0.00  0.00     0.075 A 
HETATM    2  C   UNK N   1     168.207 153.459 153.155  0.00  0.00     0.025 A 
HETATM    3  C   UNK N   1     167.857 154.780 152.895  0.00  0.00     0.003 A 
HETATM    4  C   UNK N   1     167.179 155.522 153.862  0.00  0.00     0.017 A 
HETATM    5  C   UNK N   1     166.840 154.961 155.104  0.00  0.00     0.033 A 
HETATM    6  C   UNK N   1     167.202 153.624 155.353  0.00  0.00     0.041 A 
ENDROOT
BRANCH   5   7
HETATM    7  C   UNK N   1     166.120 155.739 156.171  0.00  0.00     0.253 C 
HETATM    8  O   UNK N   1     166.781 156.155 157.116  0.00  0.00    -0.267 OA
HETATM    9  N   UNK N   1     164.772 156.015 156.133  0.00  0.00    -0.347 N 
HETATM   10  C   UNK N   1     163.917 155.535 155.061  0.00  0.00     0.126 C 
HETATM   11  C   UNK N   1     164.168 156.805 157.204  0.00  0.00     0.137 C 
HETATM   12  C   UNK N   1     162.693 154.831 155.641  0.00  0.00     0.021 C 
HETATM   13  C   UNK N   1     161.985 155.686 156.706  0.00  0.00     0.014 C 
HETATM   14  C   UNK N   1     162.666 157.037 156.982  0.00  0.00    -0.006 C 
HETATM   15  C   UNK N   1     162.069 157.642 158.239  0.00  0.00     0.019 C 
BRANCH  14  16
HETATM   16  C   UNK N   1     162.473 158.014 155.817  0.00  0.00     0.175 C 
BRANCH  16  17
HETATM   17  O   UNK N   1     161.202 158.591 155.840  0.00  0.00    -0.400 OA
HETATM   18  H   UNK N   1     160.993 158.952 154.965  0.00  0.00     0.209 HD
ENDBRANCH  16  17
ENDBRANCH  14  16
ENDBRANCH   5   7
BRANCH   1  19
HETATM   19  S   UNK N   1     168.309 151.171 154.680  0.00  0.00     0.241 S 
HETATM   20  O   UNK N   1     167.254 150.427 155.514  0.00  0.00    -0.206 OA
HETATM   21  O   UNK N   1     169.571 151.007 155.541  0.00  0.00    -0.206 OA
BRANCH  19  22
HETATM   22  N   UNK N   1     168.575 150.157 153.260  0.00  0.00    -0.216 NA
HETATM   23  H   UNK N   1     167.863 150.332 152.553  0.00  0.00     0.139 HD
BRANCH  22  24
HETATM   24  C   UNK N   1     168.522 148.777 153.712  0.00  0.00     0.100 C 
HETATM   25  C   UNK N   1     169.698 148.011 153.147  0.00  0.00     0.021 C 
ENDBRANCH  22  24
ENDBRANCH  19  22
ENDBRANCH   1  19
TORSDOF 6
ENDMDL
MODEL 9
REMARK VINA RESULT:      -5.4      4.246      8.667
REMARK  6 active torsions:
REMARK  status: ('A' for Active; 'I' for Inactive)
REMARK    1  A    between atoms: C_2  and  N_3 
REMARK    2  A    between atoms: N_3  and  S_4 
REMARK    3  A    between atoms: S_4  and  C_7 
REMARK    4  A    between atoms: C_11  and  C_12 
REMARK       I    between atoms: C_12  and  N_14 
REMARK    5  A    between atoms: C_18  and  C_20 
REMARK    6  A    between atoms: C_20  and  O_21 
ROOT
HETATM    1  C   UNK N   1     168.368 156.238 155.338  0.00  0.00     0.075 A 
HETATM    2  C   UNK N   1     169.137 155.722 156.382  0.00  0.00     0.025 A 
HETATM    3  C   UNK N   1     168.750 155.935 157.701  0.00  0.00     0.003 A 
HETATM    4  C   UNK N   1     167.596 156.667 157.977  0.00  0.00     0.017 A 
HETATM    5  C   UNK N   1     166.807 157.199 156.944  0.00  0.00     0.033 A 
HETATM    6  C   UNK N   1     167.210 156.975 155.615  0.00  0.00     0.041 A 
ENDROOT
BRANCH   5   7
HETATM    7  C   UNK N   1     165.550 157.982 157.210  0.00  0.00     0.253 C 
HETATM    8  O   UNK N   1     164.492 157.365 157.245  0.00  0.00    -0.267 OA
HETATM    9  N   UNK N   1     165.533 159.341 157.427  0.00  0.00    -0.347 N 
HETATM   10  C   UNK N   1     166.741 160.146 157.377  0.00  0.00     0.126 C 
HETATM   11  C   UNK N   1     164.264 160.009 157.707  0.00  0.00     0.137 C 
HETATM   12  C   UNK N   1     166.537 161.344 156.456  0.00  0.00     0.021 C 
HETATM   13  C   UNK N   1     165.252 162.120 156.794  0.00  0.00     0.014 C 
HETATM   14  C   UNK N   1     164.438 161.515 157.951  0.00  0.00    -0.006 C 
HETATM   15  C   UNK N   1     163.071 162.172 157.988  0.00  0.00     0.019 C 
BRANCH  14  16
HETATM   16  C   UNK N   1     165.132 161.731 159.301  0.00  0.00     0.175 C 
BRANCH  16  17
HETATM   17  O   UNK N   1     165.736 162.988 159.368  0.00  0.00    -0.400 OA
HETATM   18  H   UNK N   1     165.556 163.389 160.233  0.00  0.00     0.209 HD
ENDBRANCH  16  17
ENDBRANCH  14  16
ENDBRANCH   5   7
BRANCH   1  19
HETATM   19  S   UNK N   1     168.903 155.986 153.652  0.00  0.00     0.241 S 
HETATM   20  O   UNK N   1     169.819 154.764 153.491  0.00  0.00    -0.206 OA
HETATM   21  O   UNK N   1     169.793 157.124 153.128  0.00  0.00    -0.206 OA
BRANCH  19  22
HETATM   22  N   UNK N   1     167.640 155.782 152.437  0.00  0.00    -0.216 NA
HETATM   23  H   UNK N   1     166.734 156.071 152.806  0.00  0.00     0.139 HD
BRANCH  22  24
HETATM   24  C   UNK N   1     167.624 154.374 152.078  0.00  0.00     0.100 C 
HETATM   25  C   UNK N   1     167.217 154.222 150.629  0.00  0.00     0.021 C 
ENDBRANCH  22  24
ENDBRANCH  19  22
ENDBRANCH   1  19
TORSDOF 6
ENDMDL
