MODEL 1
REMARK VINA RESULT:      -5.5      0.000      0.000
REMARK  7 active torsions:
REMARK  status: ('A' for Active; 'I' for Inactive)
REMARK    1  A    between atoms: C_2  and  C_4 
REMARK    2  A    between atoms: C_5  and  C_6 
REMARK       I    between atoms: C_6  and  N_8 
REMARK    3  A    between atoms: N_8  and  C_9 
REMARK    4  A    between atoms: C_9  and  C_11 
REMARK    5  A    between atoms: C_11  and  C_12 
REMARK    6  A    between atoms: C_12  and  N_14 
REMARK       I    between atoms: N_14  and  C_15 
REMARK    7  A    between atoms: C_15  and  C_17 
ROOT
HETATM    1  C   UNK N   1     165.661 156.638 153.550  0.00  0.00     0.082 C 
HETATM    2  C   UNK N   1     164.584 157.596 153.078  0.00  0.00     0.032 C 
ENDROOT
BRANCH   1   3
HETATM    3  C   UNK N   1     165.200 155.858 154.787  0.00  0.00     0.049 C 
BRANCH   3   4
HETATM    4  C   UNK N   1     166.301 155.696 155.846  0.00  0.00     0.083 C 
HETATM    5  C   UNK N   1     167.095 156.981 155.967  0.00  0.00     0.032 C 
BRANCH   4   6
HETATM    6  N   UNK N   1     167.229 154.603 155.601  0.00  0.00    -0.346 N 
HETATM    7  C   UNK N   1     166.976 153.269 155.664  0.00  0.00     0.296 C 
HETATM    8  O   UNK N   1     165.888 152.836 156.012  0.00  0.00    -0.258 OA
HETATM    9  H   UNK N   1     168.148 154.861 155.362  0.00  0.00     0.163 HD
BRANCH   7  10
HETATM   10  C   UNK N   1     168.014 152.350 155.299  0.00  0.00    -0.005 C 
HETATM   11  C   UNK N   1     168.892 151.597 154.963  0.00  0.00    -0.092 C 
BRANCH  11  12
HETATM   12  C   UNK N   1     169.956 150.692 154.537  0.00  0.00     0.057 C 
HETATM   13  C   UNK N   1     169.346 149.453 153.917  0.00  0.00     0.023 C 
HETATM   14  C   UNK N   1     170.832 151.392 153.520  0.00  0.00     0.023 C 
ENDBRANCH  11  12
ENDBRANCH   7  10
ENDBRANCH   4   6
ENDBRANCH   3   4
ENDBRANCH   1   3
BRANCH   1  15
HETATM   15  N   UNK N   1     166.023 155.732 152.480  0.00  0.00    -0.351 N 
HETATM   16  C   UNK N   1     167.314 155.408 152.209  0.00  0.00     0.268 C 
HETATM   17  O   UNK N   1     168.225 155.930 152.836  0.00  0.00    -0.266 OA
HETATM   18  H   UNK N   1     165.309 155.336 151.931  0.00  0.00     0.163 HD
BRANCH  16  19
HETATM   19  C   UNK N   1     167.628 154.403 151.178  0.00  0.00     0.103 A 
HETATM   20  C   UNK N   1     168.006 153.096 151.541  0.00  0.00     0.065 A 
HETATM   21  C   UNK N   1     168.310 152.218 150.508  0.00  0.00     0.042 A 
HETATM   22  C   UNK N   1     168.703 150.902 150.589  0.00  0.00     0.031 A 
HETATM   23  N   UNK N   1     168.244 152.608 149.232  0.00  0.00    -0.318 N 
HETATM   24  C   UNK N   1     168.881 150.485 149.268  0.00  0.00     0.020 A 
HETATM   25  C   UNK N   1     168.585 151.574 148.452  0.00  0.00     0.098 A 
HETATM   26  C   UNK N   1     167.882 153.860 148.874  0.00  0.00     0.188 A 
HETATM   27  N   UNK N   1     167.576 154.756 149.854  0.00  0.00    -0.347 N 
ATOM     28  HN  UNK N   1     167.304 155.705 149.599  1.00  0.00     0.167 HD
ENDBRANCH  16  19
ENDBRANCH   1  15
TORSDOF 7
ENDMDL
MODEL 2
REMARK VINA RESULT:      -5.4     13.181     15.202
REMARK  7 active torsions:
REMARK  status: ('A' for Active; 'I' for Inactive)
REMARK    1  A    between atoms: C_2  and  C_4 
REMARK    2  A    between atoms: C_5  and  C_6 
REMARK       I    between atoms: C_6  and  N_8 
REMARK    3  A    between atoms: N_8  and  C_9 
REMARK    4  A    between atoms: C_9  and  C_11 
REMARK    5  A    between atoms: C_11  and  C_12 
REMARK    6  A    between atoms: C_12  and  N_14 
REMARK       I    between atoms: N_14  and  C_15 
REMARK    7  A    between atoms: C_15  and  C_17 
ROOT
HETATM    1  C   UNK N   1     154.070 148.790 158.934  0.00  0.00     0.082 C 
HETATM    2  C   UNK N   1     153.045 149.619 159.686  0.00  0.00     0.032 C 
ENDROOT
BRANCH   1   3
HETATM    3  C   UNK N   1     154.798 149.635 157.883  0.00  0.00     0.049 C 
BRANCH   3   4
HETATM    4  C   UNK N   1     155.003 148.901 156.550  0.00  0.00     0.083 C 
HETATM    5  C   UNK N   1     153.667 148.436 156.006  0.00  0.00     0.032 C 
BRANCH   4   6
HETATM    6  N   UNK N   1     155.898 147.756 156.614  0.00  0.00    -0.346 N 
HETATM    7  C   UNK N   1     157.196 147.738 157.017  0.00  0.00     0.296 C 
HETATM    8  O   UNK N   1     157.788 148.760 157.328  0.00  0.00    -0.258 OA
HETATM    9  H   UNK N   1     155.518 146.893 156.332  0.00  0.00     0.163 HD
BRANCH   7  10
HETATM   10  C   UNK N   1     157.881 146.480 157.088  0.00  0.00    -0.005 C 
HETATM   11  C   UNK N   1     158.487 145.441 157.153  0.00  0.00    -0.092 C 
BRANCH  11  12
HETATM   12  C   UNK N   1     159.238 144.192 157.228  0.00  0.00     0.057 C 
HETATM   13  C   UNK N   1     159.565 143.885 158.674  0.00  0.00     0.023 C 
HETATM   14  C   UNK N   1     158.405 143.070 156.645  0.00  0.00     0.023 C 
ENDBRANCH  11  12
ENDBRANCH   7  10
ENDBRANCH   4   6
ENDBRANCH   3   4
ENDBRANCH   1   3
BRANCH   1  15
HETATM   15  N   UNK N   1     155.014 148.205 159.864  0.00  0.00    -0.351 N 
HETATM   16  C   UNK N   1     155.303 146.879 159.866  0.00  0.00     0.268 C 
HETATM   17  O   UNK N   1     154.718 146.119 159.106  0.00  0.00    -0.266 OA
HETATM   18  H   UNK N   1     155.462 148.790 160.516  0.00  0.00     0.163 HD
BRANCH  16  19
HETATM   19  C   UNK N   1     156.346 146.346 160.761  0.00  0.00     0.103 A 
HETATM   20  C   UNK N   1     157.691 146.734 160.608  0.00  0.00     0.065 A 
HETATM   21  C   UNK N   1     158.614 146.165 161.477  0.00  0.00     0.042 A 
HETATM   22  C   UNK N   1     159.973 146.371 161.538  0.00  0.00     0.031 A 
HETATM   23  N   UNK N   1     158.231 145.291 162.411  0.00  0.00    -0.318 N 
HETATM   24  C   UNK N   1     160.424 145.561 162.583  0.00  0.00     0.020 A 
HETATM   25  C   UNK N   1     159.311 144.904 163.102  0.00  0.00     0.098 A 
HETATM   26  C   UNK N   1     156.942 144.913 162.566  0.00  0.00     0.188 A 
HETATM   27  N   UNK N   1     156.003 145.444 161.735  0.00  0.00    -0.347 N 
ATOM     28  HN  UNK N   1     155.027 145.166 161.838  1.00  0.00     0.167 HD
ENDBRANCH  16  19
ENDBRANCH   1  15
TORSDOF 7
ENDMDL
MODEL 3
REMARK VINA RESULT:      -5.3      1.917      4.983
REMARK  7 active torsions:
REMARK  status: ('A' for Active; 'I' for Inactive)
REMARK    1  A    between atoms: C_2  and  C_4 
REMARK    2  A    between atoms: C_5  and  C_6 
REMARK       I    between atoms: C_6  and  N_8 
REMARK    3  A    between atoms: N_8  and  C_9 
REMARK    4  A    between atoms: C_9  and  C_11 
REMARK    5  A    between atoms: C_11  and  C_12 
REMARK    6  A    between atoms: C_12  and  N_14 
REMARK       I    between atoms: N_14  and  C_15 
REMARK    7  A    between atoms: C_15  and  C_17 
ROOT
HETATM    1  C   UNK N   1     167.355 155.590 156.274  0.00  0.00     0.082 C 
HETATM    2  C   UNK N   1     167.840 156.185 157.583  0.00  0.00     0.032 C 
ENDROOT
BRANCH   1   3
HETATM    3  C   UNK N   1     167.258 156.662 155.183  0.00  0.00     0.049 C 
BRANCH   3   4
HETATM    4  C   UNK N   1     165.961 156.579 154.365  0.00  0.00     0.083 C 
HETATM    5  C   UNK N   1     164.910 155.807 155.139  0.00  0.00     0.032 C 
BRANCH   4   6
HETATM    6  N   UNK N   1     166.105 155.970 153.052  0.00  0.00    -0.346 N 
HETATM    7  C   UNK N   1     167.240 155.488 152.480  0.00  0.00     0.296 C 
HETATM    8  O   UNK N   1     168.326 155.580 153.029  0.00  0.00    -0.258 OA
HETATM    9  H   UNK N   1     165.283 155.899 152.515  0.00  0.00     0.163 HD
BRANCH   7  10
HETATM   10  C   UNK N   1     167.150 154.842 151.202  0.00  0.00    -0.005 C 
HETATM   11  C   UNK N   1     167.100 154.323 150.117  0.00  0.00    -0.092 C 
BRANCH  11  12
HETATM   12  C   UNK N   1     167.048 153.709 148.793  0.00  0.00     0.057 C 
HETATM   13  C   UNK N   1     165.622 153.721 148.287  0.00  0.00     0.023 C 
HETATM   14  C   UNK N   1     167.932 154.490 147.844  0.00  0.00     0.023 C 
ENDBRANCH  11  12
ENDBRANCH   7  10
ENDBRANCH   4   6
ENDBRANCH   3   4
ENDBRANCH   1   3
BRANCH   1  15
HETATM   15  N   UNK N   1     168.236 154.518 155.860  0.00  0.00    -0.351 N 
HETATM   16  C   UNK N   1     167.780 153.271 155.579  0.00  0.00     0.268 C 
HETATM   17  O   UNK N   1     166.596 152.999 155.729  0.00  0.00    -0.266 OA
HETATM   18  H   UNK N   1     169.200 154.701 155.778  0.00  0.00     0.163 HD
BRANCH  16  19
HETATM   19  C   UNK N   1     168.698 152.241 155.062  0.00  0.00     0.103 A 
HETATM   20  C   UNK N   1     168.802 152.001 153.678  0.00  0.00     0.065 A 
HETATM   21  C   UNK N   1     169.673 150.994 153.277  0.00  0.00     0.042 A 
HETATM   22  C   UNK N   1     169.955 150.563 152.001  0.00  0.00     0.031 A 
HETATM   23  N   UNK N   1     170.373 150.294 154.172  0.00  0.00    -0.318 N 
HETATM   24  C   UNK N   1     170.888 149.536 152.154  0.00  0.00     0.020 A 
HETATM   25  C   UNK N   1     171.124 149.397 153.520  0.00  0.00     0.098 A 
HETATM   26  C   UNK N   1     170.280 150.518 155.502  0.00  0.00     0.188 A 
HETATM   27  N   UNK N   1     169.438 151.494 155.942  0.00  0.00    -0.347 N 
ATOM     28  HN  UNK N   1     169.356 151.672 156.943  1.00  0.00     0.167 HD
ENDBRANCH  16  19
ENDBRANCH   1  15
TORSDOF 7
ENDMDL
MODEL 4
REMARK VINA RESULT:      -5.1      2.842      6.152
REMARK  7 active torsions:
REMARK  status: ('A' for Active; 'I' for Inactive)
REMARK    1  A    between atoms: C_2  and  C_4 
REMARK    2  A    between atoms: C_5  and  C_6 
REMARK       I    between atoms: C_6  and  N_8 
REMARK    3  A    between atoms: N_8  and  C_9 
REMARK    4  A    between atoms: C_9  and  C_11 
REMARK    5  A    between atoms: C_11  and  C_12 
REMARK    6  A    between atoms: C_12  and  N_14 
REMARK       I    between atoms: N_14  and  C_15 
REMARK    7  A    between atoms: C_15  and  C_17 
ROOT
HETATM    1  C   UNK N   1     167.992 155.417 153.927  0.00  0.00     0.082 C 
HETATM    2  C   UNK N   1     169.029 156.480 153.616  0.00  0.00     0.032 C 
ENDROOT
BRANCH   1   3
HETATM    3  C   UNK N   1     166.722 155.628 153.095  0.00  0.00     0.049 C 
BRANCH   3   4
HETATM    4  C   UNK N   1     165.508 156.049 153.936  0.00  0.00     0.083 C 
HETATM    5  C   UNK N   1     164.391 156.525 153.030  0.00  0.00     0.032 C 
BRANCH   4   6
HETATM    6  N   UNK N   1     165.777 157.086 154.920  0.00  0.00    -0.346 N 
HETATM    7  C   UNK N   1     165.942 158.417 154.700  0.00  0.00     0.296 C 
HETATM    8  O   UNK N   1     165.936 158.888 153.573  0.00  0.00    -0.258 OA
HETATM    9  H   UNK N   1     165.848 156.788 155.855  0.00  0.00     0.163 HD
BRANCH   7  10
HETATM   10  C   UNK N   1     166.113 159.289 155.825  0.00  0.00    -0.005 C 
HETATM   11  C   UNK N   1     166.232 160.043 156.757  0.00  0.00    -0.092 C 
BRANCH  11  12
HETATM   12  C   UNK N   1     166.367 160.971 157.876  0.00  0.00     0.057 C 
HETATM   13  C   UNK N   1     165.538 160.478 159.043  0.00  0.00     0.023 C 
HETATM   14  C   UNK N   1     167.822 161.055 158.285  0.00  0.00     0.023 C 
ENDBRANCH  11  12
ENDBRANCH   7  10
ENDBRANCH   4   6
ENDBRANCH   3   4
ENDBRANCH   1   3
BRANCH   1  15
HETATM   15  N   UNK N   1     168.545 154.100 153.692  0.00  0.00    -0.351 N 
HETATM   16  C   UNK N   1     168.173 153.016 154.420  0.00  0.00     0.268 C 
HETATM   17  O   UNK N   1     167.389 153.139 155.352  0.00  0.00    -0.266 OA
HETATM   18  H   UNK N   1     169.213 153.986 152.978  0.00  0.00     0.163 HD
BRANCH  16  19
HETATM   19  C   UNK N   1     168.685 151.678 154.078  0.00  0.00     0.103 A 
HETATM   20  C   UNK N   1     169.844 151.532 153.290  0.00  0.00     0.065 A 
HETATM   21  C   UNK N   1     170.244 150.235 152.993  0.00  0.00     0.042 A 
HETATM   22  C   UNK N   1     171.326 149.822 152.249  0.00  0.00     0.031 A 
HETATM   23  N   UNK N   1     169.554 149.183 153.438  0.00  0.00    -0.318 N 
HETATM   24  C   UNK N   1     171.271 148.426 152.258  0.00  0.00     0.020 A 
HETATM   25  C   UNK N   1     170.154 148.066 153.008  0.00  0.00     0.098 A 
HETATM   26  C   UNK N   1     168.442 149.313 154.195  0.00  0.00     0.188 A 
HETATM   27  N   UNK N   1     168.011 150.566 154.511  0.00  0.00    -0.347 N 
ATOM     28  HN  UNK N   1     167.171 150.679 155.079  1.00  0.00     0.167 HD
ENDBRANCH  16  19
ENDBRANCH   1  15
TORSDOF 7
ENDMDL
MODEL 5
REMARK VINA RESULT:      -5.1      2.262      5.213
REMARK  7 active torsions:
REMARK  status: ('A' for Active; 'I' for Inactive)
REMARK    1  A    between atoms: C_2  and  C_4 
REMARK    2  A    between atoms: C_5  and  C_6 
REMARK       I    between atoms: C_6  and  N_8 
REMARK    3  A    between atoms: N_8  and  C_9 
REMARK    4  A    between atoms: C_9  and  C_11 
REMARK    5  A    between atoms: C_11  and  C_12 
REMARK    6  A    between atoms: C_12  and  N_14 
REMARK       I    between atoms: N_14  and  C_15 
REMARK    7  A    between atoms: C_15  and  C_17 
ROOT
HETATM    1  C   UNK N   1     168.138 154.491 156.218  0.00  0.00     0.082 C 
HETATM    2  C   UNK N   1     168.993 154.940 157.388  0.00  0.00     0.032 C 
ENDROOT
BRANCH   1   3
HETATM    3  C   UNK N   1     167.931 155.634 155.217  0.00  0.00     0.049 C 
BRANCH   3   4
HETATM    4  C   UNK N   1     169.029 155.709 154.146  0.00  0.00     0.083 C 
HETATM    5  C   UNK N   1     169.517 157.137 154.005  0.00  0.00     0.032 C 
BRANCH   4   6
HETATM    6  N   UNK N   1     168.636 155.224 152.833  0.00  0.00    -0.346 N 
HETATM    7  C   UNK N   1     167.389 155.204 152.293  0.00  0.00     0.296 C 
HETATM    8  O   UNK N   1     166.408 155.563 152.927  0.00  0.00    -0.258 OA
HETATM    9  H   UNK N   1     169.360 154.868 152.268  0.00  0.00     0.163 HD
BRANCH   7  10
HETATM   10  C   UNK N   1     167.227 154.762 150.939  0.00  0.00    -0.005 C 
HETATM   11  C   UNK N   1     167.092 154.425 149.790  0.00  0.00    -0.092 C 
BRANCH  11  12
HETATM   12  C   UNK N   1     166.924 154.035 148.394  0.00  0.00     0.057 C 
HETATM   13  C   UNK N   1     167.826 152.860 148.085  0.00  0.00     0.023 C 
HETATM   14  C   UNK N   1     165.481 153.646 148.152  0.00  0.00     0.023 C 
ENDBRANCH  11  12
ENDBRANCH   7  10
ENDBRANCH   4   6
ENDBRANCH   3   4
ENDBRANCH   1   3
BRANCH   1  15
HETATM   15  N   UNK N   1     168.745 153.348 155.569  0.00  0.00    -0.351 N 
HETATM   16  C   UNK N   1     168.030 152.248 155.218  0.00  0.00     0.268 C 
HETATM   17  O   UNK N   1     166.842 152.170 155.500  0.00  0.00    -0.266 OA
HETATM   18  H   UNK N   1     169.710 153.369 155.375  0.00  0.00     0.163 HD
BRANCH  16  19
HETATM   19  C   UNK N   1     168.670 151.153 154.469  0.00  0.00     0.103 A 
HETATM   20  C   UNK N   1     169.164 150.017 155.139  0.00  0.00     0.065 A 
HETATM   21  C   UNK N   1     169.775 149.042 154.359  0.00  0.00     0.042 A 
HETATM   22  C   UNK N   1     170.337 147.852 154.761  0.00  0.00     0.031 A 
HETATM   23  N   UNK N   1     169.883 149.187 153.036  0.00  0.00    -0.318 N 
HETATM   24  C   UNK N   1     170.808 147.251 153.592  0.00  0.00     0.020 A 
HETATM   25  C   UNK N   1     170.508 148.112 152.539  0.00  0.00     0.098 A 
HETATM   26  C   UNK N   1     169.411 150.273 152.385  0.00  0.00     0.188 A 
HETATM   27  N   UNK N   1     168.805 151.255 153.108  0.00  0.00    -0.347 N 
ATOM     28  HN  UNK N   1     168.447 152.082 152.630  1.00  0.00     0.167 HD
ENDBRANCH  16  19
ENDBRANCH   1  15
TORSDOF 7
ENDMDL
MODEL 6
REMARK VINA RESULT:      -5.0     13.540     15.679
REMARK  7 active torsions:
REMARK  status: ('A' for Active; 'I' for Inactive)
REMARK    1  A    between atoms: C_2  and  C_4 
REMARK    2  A    between atoms: C_5  and  C_6 
REMARK       I    between atoms: C_6  and  N_8 
REMARK    3  A    between atoms: N_8  and  C_9 
REMARK    4  A    between atoms: C_9  and  C_11 
REMARK    5  A    between atoms: C_11  and  C_12 
REMARK    6  A    between atoms: C_12  and  N_14 
REMARK       I    between atoms: N_14  and  C_15 
REMARK    7  A    between atoms: C_15  and  C_17 
ROOT
HETATM    1  C   UNK N   1     155.087 148.718 157.168  0.00  0.00     0.082 C 
HETATM    2  C   UNK N   1     155.711 150.100 157.108  0.00  0.00     0.032 C 
ENDROOT
BRANCH   1   3
HETATM    3  C   UNK N   1     155.581 147.841 156.012  0.00  0.00     0.049 C 
BRANCH   3   4
HETATM    4  C   UNK N   1     157.112 147.803 155.892  0.00  0.00     0.083 C 
HETATM    5  C   UNK N   1     157.517 147.832 154.432  0.00  0.00     0.032 C 
BRANCH   4   6
HETATM    6  N   UNK N   1     157.746 146.656 156.523  0.00  0.00    -0.346 N 
HETATM    7  C   UNK N   1     158.327 146.599 157.750  0.00  0.00     0.296 C 
HETATM    8  O   UNK N   1     158.429 147.587 158.460  0.00  0.00    -0.258 OA
HETATM    9  H   UNK N   1     157.754 145.823 155.998  0.00  0.00     0.163 HD
BRANCH   7  10
HETATM   10  C   UNK N   1     158.821 145.339 158.224  0.00  0.00    -0.005 C 
HETATM   11  C   UNK N   1     159.253 144.297 158.648  0.00  0.00    -0.092 C 
BRANCH  11  12
HETATM   12  C   UNK N   1     159.789 143.045 159.174  0.00  0.00     0.057 C 
HETATM   13  C   UNK N   1     158.647 142.131 159.563  0.00  0.00     0.023 C 
HETATM   14  C   UNK N   1     160.637 142.378 158.112  0.00  0.00     0.023 C 
ENDBRANCH  11  12
ENDBRANCH   7  10
ENDBRANCH   4   6
ENDBRANCH   3   4
ENDBRANCH   1   3
BRANCH   1  15
HETATM   15  N   UNK N   1     155.379 148.097 158.442  0.00  0.00    -0.351 N 
HETATM   16  C   UNK N   1     154.404 147.608 159.251  0.00  0.00     0.268 C 
HETATM   17  O   UNK N   1     153.227 147.736 158.945  0.00  0.00    -0.266 OA
HETATM   18  H   UNK N   1     156.317 148.025 158.732  0.00  0.00     0.163 HD
BRANCH  16  19
HETATM   19  C   UNK N   1     154.755 146.892 160.490  0.00  0.00     0.103 A 
HETATM   20  C   UNK N   1     155.950 146.152 160.579  0.00  0.00     0.065 A 
HETATM   21  C   UNK N   1     156.192 145.486 161.774  0.00  0.00     0.042 A 
HETATM   22  C   UNK N   1     157.270 144.702 162.116  0.00  0.00     0.031 A 
HETATM   23  N   UNK N   1     155.323 145.552 162.786  0.00  0.00    -0.318 N 
HETATM   24  C   UNK N   1     157.020 144.276 163.422  0.00  0.00     0.020 A 
HETATM   25  C   UNK N   1     155.799 144.825 163.805  0.00  0.00     0.098 A 
HETATM   26  C   UNK N   1     154.174 146.260 162.711  0.00  0.00     0.188 A 
HETATM   27  N   UNK N   1     153.895 146.929 161.557  0.00  0.00    -0.347 N 
ATOM     28  HN  UNK N   1     153.030 147.464 161.485  1.00  0.00     0.167 HD
ENDBRANCH  16  19
ENDBRANCH   1  15
TORSDOF 7
ENDMDL
MODEL 7
REMARK VINA RESULT:      -4.9      3.266      6.917
REMARK  7 active torsions:
REMARK  status: ('A' for Active; 'I' for Inactive)
REMARK    1  A    between atoms: C_2  and  C_4 
REMARK    2  A    between atoms: C_5  and  C_6 
REMARK       I    between atoms: C_6  and  N_8 
REMARK    3  A    between atoms: N_8  and  C_9 
REMARK    4  A    between atoms: C_9  and  C_11 
REMARK    5  A    between atoms: C_11  and  C_12 
REMARK    6  A    between atoms: C_12  and  N_14 
REMARK       I    between atoms: N_14  and  C_15 
REMARK    7  A    between atoms: C_15  and  C_17 
ROOT
HETATM    1  C   UNK N   1     167.827 154.417 152.686  0.00  0.00     0.082 C 
HETATM    2  C   UNK N   1     167.288 154.403 151.268  0.00  0.00     0.032 C 
ENDROOT
BRANCH   1   3
HETATM    3  C   UNK N   1     167.053 155.409 153.560  0.00  0.00     0.049 C 
BRANCH   3   4
HETATM    4  C   UNK N   1     167.665 156.817 153.567  0.00  0.00     0.083 C 
HETATM    5  C   UNK N   1     169.177 156.723 153.535  0.00  0.00     0.032 C 
BRANCH   4   6
HETATM    6  N   UNK N   1     167.279 157.646 154.698  0.00  0.00    -0.346 N 
HETATM    7  C   UNK N   1     166.326 158.615 154.731  0.00  0.00     0.296 C 
HETATM    8  O   UNK N   1     165.704 158.939 153.732  0.00  0.00    -0.258 OA
HETATM    9  H   UNK N   1     167.766 157.486 155.538  0.00  0.00     0.163 HD
BRANCH   7  10
HETATM   10  C   UNK N   1     166.038 159.260 155.979  0.00  0.00    -0.005 C 
HETATM   11  C   UNK N   1     165.830 159.799 157.036  0.00  0.00    -0.092 C 
BRANCH  11  12
HETATM   12  C   UNK N   1     165.597 160.446 158.324  0.00  0.00     0.057 C 
HETATM   13  C   UNK N   1     166.920 160.668 159.025  0.00  0.00     0.023 C 
HETATM   14  C   UNK N   1     164.910 161.777 158.099  0.00  0.00     0.023 C 
ENDBRANCH  11  12
ENDBRANCH   7  10
ENDBRANCH   4   6
ENDBRANCH   3   4
ENDBRANCH   1   3
BRANCH   1  15
HETATM   15  N   UNK N   1     167.771 153.085 153.251  0.00  0.00    -0.351 N 
HETATM   16  C   UNK N   1     168.858 152.480 153.796  0.00  0.00     0.268 C 
HETATM   17  O   UNK N   1     169.949 153.034 153.769  0.00  0.00    -0.266 OA
HETATM   18  H   UNK N   1     166.914 152.601 153.241  0.00  0.00     0.163 HD
BRANCH  16  19
HETATM   19  C   UNK N   1     168.729 151.167 154.451  0.00  0.00     0.103 A 
HETATM   20  C   UNK N   1     169.203 150.970 155.763  0.00  0.00     0.065 A 
HETATM   21  C   UNK N   1     169.065 149.694 156.297  0.00  0.00     0.042 A 
HETATM   22  C   UNK N   1     169.442 149.240 157.540  0.00  0.00     0.031 A 
HETATM   23  N   UNK N   1     168.508 148.708 155.589  0.00  0.00    -0.318 N 
HETATM   24  C   UNK N   1     169.081 147.891 157.568  0.00  0.00     0.020 A 
HETATM   25  C   UNK N   1     168.502 147.597 156.336  0.00  0.00     0.098 A 
HETATM   26  C   UNK N   1     168.050 148.889 154.330  0.00  0.00     0.188 A 
HETATM   27  N   UNK N   1     168.165 150.123 153.765  0.00  0.00    -0.347 N 
ATOM     28  HN  UNK N   1     167.827 150.273 152.815  1.00  0.00     0.167 HD
ENDBRANCH  16  19
ENDBRANCH   1  15
TORSDOF 7
ENDMDL
MODEL 8
REMARK VINA RESULT:      -4.9      3.244      6.040
REMARK  7 active torsions:
REMARK  status: ('A' for Active; 'I' for Inactive)
REMARK    1  A    between atoms: C_2  and  C_4 
REMARK    2  A    between atoms: C_5  and  C_6 
REMARK       I    between atoms: C_6  and  N_8 
REMARK    3  A    between atoms: N_8  and  C_9 
REMARK    4  A    between atoms: C_9  and  C_11 
REMARK    5  A    between atoms: C_11  and  C_12 
REMARK    6  A    between atoms: C_12  and  N_14 
REMARK       I    between atoms: N_14  and  C_15 
REMARK    7  A    between atoms: C_15  and  C_17 
ROOT
HETATM    1  C   UNK N   1     167.807 156.322 154.625  0.00  0.00     0.082 C 
HETATM    2  C   UNK N   1     167.009 156.948 153.497  0.00  0.00     0.032 C 
ENDROOT
BRANCH   1   3
HETATM    3  C   UNK N   1     167.300 156.801 155.990  0.00  0.00     0.049 C 
BRANCH   3   4
HETATM    4  C   UNK N   1     166.221 157.888 155.889  0.00  0.00     0.083 C 
HETATM    5  C   UNK N   1     166.670 159.132 156.629  0.00  0.00     0.032 C 
BRANCH   4   6
HETATM    6  N   UNK N   1     164.913 157.500 156.392  0.00  0.00    -0.346 N 
HETATM    7  C   UNK N   1     163.732 157.497 155.719  0.00  0.00     0.296 C 
HETATM    8  O   UNK N   1     163.644 157.901 154.571  0.00  0.00    -0.258 OA
HETATM    9  H   UNK N   1     164.880 157.205 157.330  0.00  0.00     0.163 HD
BRANCH   7  10
HETATM   10  C   UNK N   1     162.562 156.991 156.377  0.00  0.00    -0.005 C 
HETATM   11  C   UNK N   1     161.589 156.585 156.958  0.00  0.00    -0.092 C 
BRANCH  11  12
HETATM   12  C   UNK N   1     160.417 156.098 157.681  0.00  0.00     0.057 C 
HETATM   13  C   UNK N   1     160.794 155.807 159.117  0.00  0.00     0.023 C 
HETATM   14  C   UNK N   1     159.331 157.153 157.643  0.00  0.00     0.023 C 
ENDBRANCH  11  12
ENDBRANCH   7  10
ENDBRANCH   4   6
ENDBRANCH   3   4
ENDBRANCH   1   3
BRANCH   1  15
HETATM   15  N   UNK N   1     167.745 154.878 154.534  0.00  0.00    -0.351 N 
HETATM   16  C   UNK N   1     168.743 154.142 153.981  0.00  0.00     0.268 C 
HETATM   17  O   UNK N   1     169.713 154.696 153.481  0.00  0.00    -0.266 OA
HETATM   18  H   UNK N   1     166.953 154.413 154.888  0.00  0.00     0.163 HD
BRANCH  16  19
HETATM   19  C   UNK N   1     168.683 152.670 154.004  0.00  0.00     0.103 A 
HETATM   20  C   UNK N   1     169.190 151.914 152.929  0.00  0.00     0.065 A 
HETATM   21  C   UNK N   1     169.071 150.532 153.019  0.00  0.00     0.042 A 
HETATM   22  C   UNK N   1     169.478 149.576 152.117  0.00  0.00     0.031 A 
HETATM   23  N   UNK N   1     168.499 149.959 154.081  0.00  0.00    -0.318 N 
HETATM   24  C   UNK N   1     169.123 148.352 152.687  0.00  0.00     0.020 A 
HETATM   25  C   UNK N   1     168.516 148.631 153.909  0.00  0.00     0.098 A 
HETATM   26  C   UNK N   1     168.010 150.676 155.117  0.00  0.00     0.188 A 
HETATM   27  N   UNK N   1     168.104 152.035 155.072  0.00  0.00    -0.347 N 
ATOM     28  HN  UNK N   1     167.737 152.589 155.845  1.00  0.00     0.167 HD
ENDBRANCH  16  19
ENDBRANCH   1  15
TORSDOF 7
ENDMDL
MODEL 9
REMARK VINA RESULT:      -4.9      3.891      8.753
REMARK  7 active torsions:
REMARK  status: ('A' for Active; 'I' for Inactive)
REMARK    1  A    between atoms: C_2  and  C_4 
REMARK    2  A    between atoms: C_5  and  C_6 
REMARK       I    between atoms: C_6  and  N_8 
REMARK    3  A    between atoms: N_8  and  C_9 
REMARK    4  A    between atoms: C_9  and  C_11 
REMARK    5  A    between atoms: C_11  and  C_12 
REMARK    6  A    between atoms: C_12  and  N_14 
REMARK       I    between atoms: N_14  and  C_15 
REMARK    7  A    between atoms: C_15  and  C_17 
ROOT
HETATM    1  C   UNK N   1     167.087 154.604 154.947  0.00  0.00     0.082 C 
HETATM    2  C   UNK N   1     167.581 153.191 154.699  0.00  0.00     0.032 C 
ENDROOT
BRANCH   1   3
HETATM    3  C   UNK N   1     166.809 155.330 153.626  0.00  0.00     0.049 C 
BRANCH   3   4
HETATM    4  C   UNK N   1     167.539 156.676 153.509  0.00  0.00     0.083 C 
HETATM    5  C   UNK N   1     169.036 156.449 153.457  0.00  0.00     0.032 C 
BRANCH   4   6
HETATM    6  N   UNK N   1     167.254 157.621 154.578  0.00  0.00    -0.346 N 
HETATM    7  C   UNK N   1     166.200 158.473 154.673  0.00  0.00     0.296 C 
HETATM    8  O   UNK N   1     165.369 158.572 153.783  0.00  0.00    -0.258 OA
HETATM    9  H   UNK N   1     167.902 157.646 155.318  0.00  0.00     0.163 HD
BRANCH   7  10
HETATM   10  C   UNK N   1     166.056 159.267 155.859  0.00  0.00    -0.005 C 
HETATM   11  C   UNK N   1     165.934 159.962 156.835  0.00  0.00    -0.092 C 
BRANCH  11  12
HETATM   12  C   UNK N   1     165.792 160.821 158.007  0.00  0.00     0.057 C 
HETATM   13  C   UNK N   1     167.162 161.156 158.557  0.00  0.00     0.023 C 
HETATM   14  C   UNK N   1     165.077 162.095 157.610  0.00  0.00     0.023 C 
ENDBRANCH  11  12
ENDBRANCH   7  10
ENDBRANCH   4   6
ENDBRANCH   3   4
ENDBRANCH   1   3
BRANCH   1  15
HETATM   15  N   UNK N   1     165.900 154.576 155.776  0.00  0.00    -0.351 N 
HETATM   16  C   UNK N   1     165.770 155.350 156.884  0.00  0.00     0.268 C 
HETATM   17  O   UNK N   1     166.695 156.061 157.251  0.00  0.00    -0.266 OA
HETATM   18  H   UNK N   1     165.161 153.976 155.526  0.00  0.00     0.163 HD
BRANCH  16  19
HETATM   19  C   UNK N   1     164.504 155.364 157.637  0.00  0.00     0.103 A 
HETATM   20  C   UNK N   1     163.349 155.955 157.089  0.00  0.00     0.065 A 
HETATM   21  C   UNK N   1     162.203 155.948 157.876  0.00  0.00     0.042 A 
HETATM   22  C   UNK N   1     160.959 156.455 157.583  0.00  0.00     0.031 A 
HETATM   23  N   UNK N   1     162.210 155.404 159.095  0.00  0.00    -0.318 N 
HETATM   24  C   UNK N   1     160.175 156.189 158.707  0.00  0.00     0.020 A 
HETATM   25  C   UNK N   1     160.989 155.534 159.628  0.00  0.00     0.098 A 
HETATM   26  C   UNK N   1     163.314 154.834 159.629  0.00  0.00     0.188 A 
HETATM   27  N   UNK N   1     164.460 154.818 158.894  0.00  0.00    -0.347 N 
ATOM     28  HN  UNK N   1     165.301 154.395 159.285  1.00  0.00     0.167 HD
ENDBRANCH  16  19
ENDBRANCH   1  15
TORSDOF 7
ENDMDL
