MODEL 1
REMARK VINA RESULT:      -5.6      0.000      0.000
REMARK  7 active torsions:
REMARK  status: ('A' for Active; 'I' for Inactive)
REMARK    1  A    between atoms: O_2  and  C_3 
REMARK    2  A    between atoms: C_5  and  C_3 
REMARK    3  A    between atoms: C_7  and  C_8 
REMARK       I    between atoms: N_15  and  C_16 
REMARK    4  A    between atoms: C_16  and  C_18 
REMARK    5  A    between atoms: C_18  and  S_19 
REMARK    6  A    between atoms: S_19  and  C_20 
REMARK    7  A    between atoms: C_20  and  C_21 
ROOT
HETATM    1  C   UNK N   1     165.969 159.558 157.204  0.00  0.00     0.104 C 
HETATM    2  C   UNK N   1     166.669 158.409 156.458  0.00  0.00     0.027 C 
HETATM    3  C   UNK N   1     165.975 158.135 155.119  0.00  0.00     0.037 C 
HETATM    4  C   UNK N   1     164.538 157.661 155.366  0.00  0.00     0.135 C 
HETATM    5  N   UNK N   1     163.995 158.182 156.609  0.00  0.00    -0.350 N 
HETATM    6  C   UNK N   1     163.093 157.451 157.323  0.00  0.00     0.229 C 
HETATM    7  O   UNK N   1     162.672 157.870 158.392  0.00  0.00    -0.273 OA
HETATM    8  C   UNK N   1     164.437 159.480 157.086  0.00  0.00     0.140 C 
ENDROOT
BRANCH   6   9
HETATM    9  C   UNK N   1     162.580 156.131 156.820  0.00  0.00     0.177 C 
BRANCH   9  10
HETATM   10  S   UNK N   1     163.351 154.740 157.721  0.00  0.00    -0.154 SA
BRANCH  10  11
HETATM   11  C   UNK N   1     164.257 154.171 156.251  0.00  0.00     0.131 C 
BRANCH  11  12
HETATM   12  C   UNK N   1     165.720 154.247 156.493  0.00  0.00     0.018 A 
HETATM   13  C   UNK N   1     166.591 153.517 155.680  0.00  0.00     0.026 A 
HETATM   14  C   UNK N   1     167.963 153.580 155.921  0.00  0.00     0.003 A 
HETATM   15  C   UNK N   1     168.448 154.374 156.960  0.00  0.00     0.017 A 
HETATM   16  C   UNK N   1     167.547 155.094 157.749  0.00  0.00     0.088 A 
HETATM   17  N   UNK N   1     166.210 155.014 157.505  0.00  0.00    -0.369 N 
ATOM     18  HN  UNK N   1     165.563 155.540 158.091  1.00  0.00     0.165 HD
ENDBRANCH  11  12
ENDBRANCH  10  11
ENDBRANCH   9  10
ENDBRANCH   6   9
BRANCH   3  19
HETATM   19  C   UNK N   1     166.716 157.148 154.253  0.00  0.00    -0.052 A 
HETATM   20  C   UNK N   1     165.999 156.352 153.347  0.00  0.00     0.007 A 
HETATM   21  C   UNK N   1     166.665 155.430 152.536  0.00  0.00     0.001 A 
HETATM   22  C   UNK N   1     168.055 155.305 152.614  0.00  0.00     0.000 A 
HETATM   23  C   UNK N   1     168.779 156.100 153.505  0.00  0.00     0.001 A 
HETATM   24  C   UNK N   1     168.113 157.015 154.324  0.00  0.00     0.007 A 
ENDBRANCH   3  19
BRANCH   1  25
HETATM   25  C   UNK N   1     166.429 160.909 156.720  0.00  0.00     0.264 C 
HETATM   26  O   UNK N   1     165.809 161.497 155.842  0.00  0.00    -0.265 OA
BRANCH  25  27
HETATM   27  O   UNK N   1     167.537 161.466 157.265  0.00  0.00    -0.326 OA
HETATM   28  C   UNK N   1     167.964 161.157 158.536  0.00  0.00     0.213 C 
ENDBRANCH  25  27
ENDBRANCH   1  25
TORSDOF 7
ENDMDL
MODEL 2
REMARK VINA RESULT:      -5.5      2.181      3.527
REMARK  7 active torsions:
REMARK  status: ('A' for Active; 'I' for Inactive)
REMARK    1  A    between atoms: O_2  and  C_3 
REMARK    2  A    between atoms: C_5  and  C_3 
REMARK    3  A    between atoms: C_7  and  C_8 
REMARK       I    between atoms: N_15  and  C_16 
REMARK    4  A    between atoms: C_16  and  C_18 
REMARK    5  A    between atoms: C_18  and  S_19 
REMARK    6  A    between atoms: S_19  and  C_20 
REMARK    7  A    between atoms: C_20  and  C_21 
ROOT
HETATM    1  C   UNK N   1     166.728 160.428 156.978  0.00  0.00     0.104 C 
HETATM    2  C   UNK N   1     166.436 159.395 155.877  0.00  0.00     0.027 C 
HETATM    3  C   UNK N   1     165.252 158.505 156.275  0.00  0.00     0.037 C 
HETATM    4  C   UNK N   1     165.609 157.694 157.526  0.00  0.00     0.135 C 
HETATM    5  N   UNK N   1     166.587 158.375 158.359  0.00  0.00    -0.350 N 
HETATM    6  C   UNK N   1     167.484 157.655 159.091  0.00  0.00     0.229 C 
HETATM    7  O   UNK N   1     168.336 158.230 159.755  0.00  0.00    -0.273 OA
HETATM    8  C   UNK N   1     166.604 159.826 158.389  0.00  0.00     0.140 C 
ENDROOT
BRANCH   6   9
HETATM    9  C   UNK N   1     167.447 156.153 159.119  0.00  0.00     0.177 C 
BRANCH   9  10
HETATM   10  S   UNK N   1     168.757 155.444 158.059  0.00  0.00    -0.154 SA
BRANCH  10  11
HETATM   11  C   UNK N   1     167.559 154.586 156.995  0.00  0.00     0.131 C 
BRANCH  11  12
HETATM   12  C   UNK N   1     167.703 155.046 155.591  0.00  0.00     0.018 A 
HETATM   13  C   UNK N   1     168.290 156.286 155.330  0.00  0.00     0.026 A 
HETATM   14  C   UNK N   1     168.410 156.720 154.009  0.00  0.00     0.003 A 
HETATM   15  C   UNK N   1     167.952 155.909 152.970  0.00  0.00     0.017 A 
HETATM   16  C   UNK N   1     167.376 154.672 153.270  0.00  0.00     0.088 A 
HETATM   17  N   UNK N   1     167.260 154.269 154.565  0.00  0.00    -0.369 N 
ATOM     18  HN  UNK N   1     166.832 153.366 154.770  1.00  0.00     0.165 HD
ENDBRANCH  11  12
ENDBRANCH  10  11
ENDBRANCH   9  10
ENDBRANCH   6   9
BRANCH   3  19
HETATM   19  C   UNK N   1     164.793 157.592 155.167  0.00  0.00    -0.052 A 
HETATM   20  C   UNK N   1     164.967 157.985 153.832  0.00  0.00     0.007 A 
HETATM   21  C   UNK N   1     164.547 157.155 152.790  0.00  0.00     0.001 A 
HETATM   22  C   UNK N   1     163.962 155.918 153.072  0.00  0.00     0.000 A 
HETATM   23  C   UNK N   1     163.792 155.512 154.398  0.00  0.00     0.001 A 
HETATM   24  C   UNK N   1     164.202 156.347 155.441  0.00  0.00     0.007 A 
ENDBRANCH   3  19
BRANCH   1  25
HETATM   25  C   UNK N   1     165.825 161.631 156.878  0.00  0.00     0.264 C 
HETATM   26  O   UNK N   1     165.659 162.194 155.803  0.00  0.00    -0.265 OA
BRANCH  25  27
HETATM   27  O   UNK N   1     165.197 162.082 157.992  0.00  0.00    -0.326 OA
HETATM   28  C   UNK N   1     163.907 162.561 157.963  0.00  0.00     0.213 C 
ENDBRANCH  25  27
ENDBRANCH   1  25
TORSDOF 7
ENDMDL
MODEL 3
REMARK VINA RESULT:      -5.4      2.905      5.530
REMARK  7 active torsions:
REMARK  status: ('A' for Active; 'I' for Inactive)
REMARK    1  A    between atoms: O_2  and  C_3 
REMARK    2  A    between atoms: C_5  and  C_3 
REMARK    3  A    between atoms: C_7  and  C_8 
REMARK       I    between atoms: N_15  and  C_16 
REMARK    4  A    between atoms: C_16  and  C_18 
REMARK    5  A    between atoms: C_18  and  S_19 
REMARK    6  A    between atoms: S_19  and  C_20 
REMARK    7  A    between atoms: C_20  and  C_21 
ROOT
HETATM    1  C   UNK N   1     167.571 156.750 153.786  0.00  0.00     0.104 C 
HETATM    2  C   UNK N   1     167.664 157.276 155.228  0.00  0.00     0.027 C 
HETATM    3  C   UNK N   1     167.415 156.144 156.232  0.00  0.00     0.037 C 
HETATM    4  C   UNK N   1     165.986 155.613 156.072  0.00  0.00     0.135 C 
HETATM    5  N   UNK N   1     165.485 155.788 154.719  0.00  0.00    -0.350 N 
HETATM    6  C   UNK N   1     164.157 156.002 154.502  0.00  0.00     0.229 C 
HETATM    7  O   UNK N   1     163.744 156.195 153.366  0.00  0.00    -0.273 OA
HETATM    8  C   UNK N   1     166.418 155.746 153.607  0.00  0.00     0.140 C 
ENDROOT
BRANCH   6   9
HETATM    9  C   UNK N   1     163.166 155.992 155.632  0.00  0.00     0.177 C 
BRANCH   9  10
HETATM   10  S   UNK N   1     162.580 157.683 156.005  0.00  0.00    -0.154 SA
BRANCH  10  11
HETATM   11  C   UNK N   1     163.460 157.736 157.594  0.00  0.00     0.131 C 
BRANCH  11  12
HETATM   12  C   UNK N   1     164.540 158.753 157.546  0.00  0.00     0.018 A 
HETATM   13  C   UNK N   1     165.120 159.199 158.736  0.00  0.00     0.026 A 
HETATM   14  C   UNK N   1     166.124 160.165 158.685  0.00  0.00     0.003 A 
HETATM   15  C   UNK N   1     166.542 160.666 157.452  0.00  0.00     0.017 A 
HETATM   16  C   UNK N   1     165.942 160.192 156.283  0.00  0.00     0.088 A 
HETATM   17  N   UNK N   1     164.958 159.255 156.351  0.00  0.00    -0.369 N 
ATOM     18  HN  UNK N   1     164.525 158.922 155.490  1.00  0.00     0.165 HD
ENDBRANCH  11  12
ENDBRANCH  10  11
ENDBRANCH   9  10
ENDBRANCH   6   9
BRANCH   3  19
HETATM   19  C   UNK N   1     167.672 156.546 157.662  0.00  0.00    -0.052 A 
HETATM   20  C   UNK N   1     168.649 157.513 157.941  0.00  0.00     0.007 A 
HETATM   21  C   UNK N   1     168.905 157.900 159.260  0.00  0.00     0.001 A 
HETATM   22  C   UNK N   1     168.176 157.333 160.309  0.00  0.00     0.000 A 
HETATM   23  C   UNK N   1     167.194 156.376 160.041  0.00  0.00     0.001 A 
HETATM   24  C   UNK N   1     166.945 155.982 158.724  0.00  0.00     0.007 A 
ENDBRANCH   3  19
BRANCH   1  25
HETATM   25  C   UNK N   1     168.856 156.104 153.337  0.00  0.00     0.264 C 
HETATM   26  O   UNK N   1     169.891 156.757 153.279  0.00  0.00    -0.265 OA
BRANCH  25  27
HETATM   27  O   UNK N   1     168.855 154.792 152.996  0.00  0.00    -0.326 OA
HETATM   28  C   UNK N   1     169.520 153.842 153.737  0.00  0.00     0.213 C 
ENDBRANCH  25  27
ENDBRANCH   1  25
TORSDOF 7
ENDMDL
MODEL 4
REMARK VINA RESULT:      -5.1      2.383      4.526
REMARK  7 active torsions:
REMARK  status: ('A' for Active; 'I' for Inactive)
REMARK    1  A    between atoms: O_2  and  C_3 
REMARK    2  A    between atoms: C_5  and  C_3 
REMARK    3  A    between atoms: C_7  and  C_8 
REMARK       I    between atoms: N_15  and  C_16 
REMARK    4  A    between atoms: C_16  and  C_18 
REMARK    5  A    between atoms: C_18  and  S_19 
REMARK    6  A    between atoms: S_19  and  C_20 
REMARK    7  A    between atoms: C_20  and  C_21 
ROOT
HETATM    1  C   UNK N   1     166.491 160.616 156.785  0.00  0.00     0.104 C 
HETATM    2  C   UNK N   1     165.592 159.388 156.565  0.00  0.00     0.027 C 
HETATM    3  C   UNK N   1     164.909 158.979 157.875  0.00  0.00     0.037 C 
HETATM    4  C   UNK N   1     165.966 158.546 158.898  0.00  0.00     0.135 C 
HETATM    5  N   UNK N   1     167.244 159.202 158.676  0.00  0.00    -0.350 N 
HETATM    6  C   UNK N   1     168.407 158.559 158.982  0.00  0.00     0.229 C 
HETATM    7  O   UNK N   1     169.483 159.094 158.751  0.00  0.00    -0.273 OA
HETATM    8  C   UNK N   1     167.266 160.539 158.112  0.00  0.00     0.140 C 
ENDROOT
BRANCH   6   9
HETATM    9  C   UNK N   1     168.406 157.198 159.618  0.00  0.00     0.177 C 
BRANCH   9  10
HETATM   10  S   UNK N   1     168.905 155.912 158.418  0.00  0.00    -0.154 SA
BRANCH  10  11
HETATM   11  C   UNK N   1     167.331 155.017 158.586  0.00  0.00     0.131 C 
BRANCH  11  12
HETATM   12  C   UNK N   1     166.575 155.072 157.309  0.00  0.00     0.018 A 
HETATM   13  C   UNK N   1     166.921 156.020 156.345  0.00  0.00     0.026 A 
HETATM   14  C   UNK N   1     166.198 156.077 155.153  0.00  0.00     0.003 A 
HETATM   15  C   UNK N   1     165.148 155.184 154.937  0.00  0.00     0.017 A 
HETATM   16  C   UNK N   1     164.835 154.245 155.923  0.00  0.00     0.088 A 
HETATM   17  N   UNK N   1     165.546 154.209 157.083  0.00  0.00    -0.369 N 
ATOM     18  HN  UNK N   1     165.303 153.523 157.797  1.00  0.00     0.165 HD
ENDBRANCH  11  12
ENDBRANCH  10  11
ENDBRANCH   9  10
ENDBRANCH   6   9
BRANCH   3  19
HETATM   19  C   UNK N   1     163.873 157.899 157.698  0.00  0.00    -0.052 A 
HETATM   20  C   UNK N   1     163.695 156.941 158.708  0.00  0.00     0.007 A 
HETATM   21  C   UNK N   1     162.741 155.930 158.563  0.00  0.00     0.001 A 
HETATM   22  C   UNK N   1     161.948 155.876 157.414  0.00  0.00     0.000 A 
HETATM   23  C   UNK N   1     162.110 156.830 156.407  0.00  0.00     0.001 A 
HETATM   24  C   UNK N   1     163.071 157.835 156.546  0.00  0.00     0.007 A 
ENDBRANCH   3  19
BRANCH   1  25
HETATM   25  C   UNK N   1     165.709 161.903 156.748  0.00  0.00     0.264 C 
HETATM   26  O   UNK N   1     165.506 162.476 155.684  0.00  0.00    -0.265 OA
BRANCH  25  27
HETATM   27  O   UNK N   1     165.230 162.421 157.906  0.00  0.00    -0.326 OA
HETATM   28  C   UNK N   1     163.884 162.598 158.129  0.00  0.00     0.213 C 
ENDBRANCH  25  27
ENDBRANCH   1  25
TORSDOF 7
ENDMDL
MODEL 5
REMARK VINA RESULT:      -5.1      2.138      3.022
REMARK  7 active torsions:
REMARK  status: ('A' for Active; 'I' for Inactive)
REMARK    1  A    between atoms: O_2  and  C_3 
REMARK    2  A    between atoms: C_5  and  C_3 
REMARK    3  A    between atoms: C_7  and  C_8 
REMARK       I    between atoms: N_15  and  C_16 
REMARK    4  A    between atoms: C_16  and  C_18 
REMARK    5  A    between atoms: C_18  and  S_19 
REMARK    6  A    between atoms: S_19  and  C_20 
REMARK    7  A    between atoms: C_20  and  C_21 
ROOT
HETATM    1  C   UNK N   1     165.827 161.061 157.680  0.00  0.00     0.104 C 
HETATM    2  C   UNK N   1     166.508 159.969 156.839  0.00  0.00     0.027 C 
HETATM    3  C   UNK N   1     165.476 158.953 156.337  0.00  0.00     0.037 C 
HETATM    4  C   UNK N   1     164.839 158.228 157.529  0.00  0.00     0.135 C 
HETATM    5  N   UNK N   1     164.837 159.046 158.730  0.00  0.00    -0.350 N 
HETATM    6  C   UNK N   1     164.941 158.463 159.957  0.00  0.00     0.229 C 
HETATM    7  O   UNK N   1     164.986 159.156 160.965  0.00  0.00    -0.273 OA
HETATM    8  C   UNK N   1     164.738 160.489 158.604  0.00  0.00     0.140 C 
ENDROOT
BRANCH   6   9
HETATM    9  C   UNK N   1     164.987 156.969 160.114  0.00  0.00     0.177 C 
BRANCH   9  10
HETATM   10  S   UNK N   1     163.310 156.282 160.355  0.00  0.00    -0.154 SA
BRANCH  10  11
HETATM   11  C   UNK N   1     163.758 154.686 159.607  0.00  0.00     0.131 C 
BRANCH  11  12
HETATM   12  C   UNK N   1     163.649 154.768 158.128  0.00  0.00     0.018 A 
HETATM   13  C   UNK N   1     164.735 154.389 157.336  0.00  0.00     0.026 A 
HETATM   14  C   UNK N   1     164.632 154.482 155.949  0.00  0.00     0.003 A 
HETATM   15  C   UNK N   1     163.449 154.941 155.371  0.00  0.00     0.017 A 
HETATM   16  C   UNK N   1     162.382 155.306 156.195  0.00  0.00     0.088 A 
HETATM   17  N   UNK N   1     162.502 155.217 157.548  0.00  0.00    -0.369 N 
ATOM     18  HN  UNK N   1     161.717 155.492 158.138  1.00  0.00     0.165 HD
ENDBRANCH  11  12
ENDBRANCH  10  11
ENDBRANCH   9  10
ENDBRANCH   6   9
BRANCH   3  19
HETATM   19  C   UNK N   1     166.043 157.959 155.356  0.00  0.00    -0.052 A 
HETATM   20  C   UNK N   1     165.380 157.736 154.139  0.00  0.00     0.007 A 
HETATM   21  C   UNK N   1     165.887 156.818 153.216  0.00  0.00     0.001 A 
HETATM   22  C   UNK N   1     167.067 156.125 153.495  0.00  0.00     0.000 A 
HETATM   23  C   UNK N   1     167.740 156.346 154.699  0.00  0.00     0.001 A 
HETATM   24  C   UNK N   1     167.229 157.256 155.627  0.00  0.00     0.007 A 
ENDBRANCH   3  19
BRANCH   1  25
HETATM   25  C   UNK N   1     165.222 162.141 156.820  0.00  0.00     0.264 C 
HETATM   26  O   UNK N   1     165.630 162.327 155.680  0.00  0.00    -0.265 OA
BRANCH  25  27
HETATM   27  O   UNK N   1     164.220 162.904 157.321  0.00  0.00    -0.326 OA
HETATM   28  C   UNK N   1     163.114 163.244 156.577  0.00  0.00     0.213 C 
ENDBRANCH  25  27
ENDBRANCH   1  25
TORSDOF 7
ENDMDL
MODEL 6
REMARK VINA RESULT:      -5.1      2.607      5.639
REMARK  7 active torsions:
REMARK  status: ('A' for Active; 'I' for Inactive)
REMARK    1  A    between atoms: O_2  and  C_3 
REMARK    2  A    between atoms: C_5  and  C_3 
REMARK    3  A    between atoms: C_7  and  C_8 
REMARK       I    between atoms: N_15  and  C_16 
REMARK    4  A    between atoms: C_16  and  C_18 
REMARK    5  A    between atoms: C_18  and  S_19 
REMARK    6  A    between atoms: S_19  and  C_20 
REMARK    7  A    between atoms: C_20  and  C_21 
ROOT
HETATM    1  C   UNK N   1     166.333 156.277 153.757  0.00  0.00     0.104 C 
HETATM    2  C   UNK N   1     166.294 157.612 154.520  0.00  0.00     0.027 C 
HETATM    3  C   UNK N   1     166.781 157.423 155.962  0.00  0.00     0.037 C 
HETATM    4  C   UNK N   1     165.830 156.483 156.712  0.00  0.00     0.135 C 
HETATM    5  N   UNK N   1     165.169 155.545 155.819  0.00  0.00    -0.350 N 
HETATM    6  C   UNK N   1     163.909 155.106 156.098  0.00  0.00     0.229 C 
HETATM    7  O   UNK N   1     163.336 154.354 155.321  0.00  0.00    -0.273 OA
HETATM    8  C   UNK N   1     165.861 155.097 154.625  0.00  0.00     0.140 C 
ENDROOT
BRANCH   6   9
HETATM    9  C   UNK N   1     163.197 155.513 157.357  0.00  0.00     0.177 C 
BRANCH   9  10
HETATM   10  S   UNK N   1     161.701 156.494 156.978  0.00  0.00    -0.154 SA
BRANCH  10  11
HETATM   11  C   UNK N   1     162.652 157.777 156.111  0.00  0.00     0.131 C 
BRANCH  11  12
HETATM   12  C   UNK N   1     162.861 158.947 157.002  0.00  0.00     0.018 A 
HETATM   13  C   UNK N   1     163.496 158.769 158.233  0.00  0.00     0.026 A 
HETATM   14  C   UNK N   1     163.677 159.868 159.072  0.00  0.00     0.003 A 
HETATM   15  C   UNK N   1     163.230 161.127 158.671  0.00  0.00     0.017 A 
HETATM   16  C   UNK N   1     162.603 161.267 157.430  0.00  0.00     0.088 A 
HETATM   17  N   UNK N   1     162.428 160.182 156.627  0.00  0.00    -0.369 N 
ATOM     18  HN  UNK N   1     161.964 160.297 155.726  1.00  0.00     0.165 HD
ENDBRANCH  11  12
ENDBRANCH  10  11
ENDBRANCH   9  10
ENDBRANCH   6   9
BRANCH   3  19
HETATM   19  C   UNK N   1     166.943 158.719 156.713  0.00  0.00    -0.052 A 
HETATM   20  C   UNK N   1     166.352 159.887 156.207  0.00  0.00     0.007 A 
HETATM   21  C   UNK N   1     166.491 161.101 156.886  0.00  0.00     0.001 A 
HETATM   22  C   UNK N   1     167.211 161.155 158.083  0.00  0.00     0.000 A 
HETATM   23  C   UNK N   1     167.795 159.996 158.600  0.00  0.00     0.001 A 
HETATM   24  C   UNK N   1     167.665 158.785 157.916  0.00  0.00     0.007 A 
ENDBRANCH   3  19
BRANCH   1  25
HETATM   25  C   UNK N   1     167.710 155.972 153.224  0.00  0.00     0.264 C 
HETATM   26  O   UNK N   1     168.418 156.871 152.787  0.00  0.00    -0.265 OA
BRANCH  25  27
HETATM   27  O   UNK N   1     168.155 154.692 153.233  0.00  0.00    -0.326 OA
HETATM   28  C   UNK N   1     169.376 154.344 153.765  0.00  0.00     0.213 C 
ENDBRANCH  25  27
ENDBRANCH   1  25
TORSDOF 7
ENDMDL
MODEL 7
REMARK VINA RESULT:      -5.1      2.609      5.405
REMARK  7 active torsions:
REMARK  status: ('A' for Active; 'I' for Inactive)
REMARK    1  A    between atoms: O_2  and  C_3 
REMARK    2  A    between atoms: C_5  and  C_3 
REMARK    3  A    between atoms: C_7  and  C_8 
REMARK       I    between atoms: N_15  and  C_16 
REMARK    4  A    between atoms: C_16  and  C_18 
REMARK    5  A    between atoms: C_18  and  S_19 
REMARK    6  A    between atoms: S_19  and  C_20 
REMARK    7  A    between atoms: C_20  and  C_21 
ROOT
HETATM    1  C   UNK N   1     165.698 155.517 154.939  0.00  0.00     0.104 C 
HETATM    2  C   UNK N   1     165.710 156.941 155.520  0.00  0.00     0.027 C 
HETATM    3  C   UNK N   1     166.849 157.100 156.534  0.00  0.00     0.037 C 
HETATM    4  C   UNK N   1     166.617 156.162 157.725  0.00  0.00     0.135 C 
HETATM    5  N   UNK N   1     165.855 154.982 157.353  0.00  0.00    -0.350 N 
HETATM    6  C   UNK N   1     165.020 154.393 158.255  0.00  0.00     0.229 C 
HETATM    7  O   UNK N   1     164.344 153.427 157.926  0.00  0.00    -0.273 OA
HETATM    8  C   UNK N   1     165.985 154.450 156.009  0.00  0.00     0.140 C 
ENDROOT
BRANCH   6   9
HETATM    9  C   UNK N   1     164.914 154.893 159.668  0.00  0.00     0.177 C 
BRANCH   9  10
HETATM   10  S   UNK N   1     163.165 155.104 160.161  0.00  0.00    -0.154 SA
BRANCH  10  11
HETATM   11  C   UNK N   1     163.263 156.917 160.067  0.00  0.00     0.131 C 
BRANCH  11  12
HETATM   12  C   UNK N   1     162.926 157.375 158.695  0.00  0.00     0.018 A 
HETATM   13  C   UNK N   1     163.292 158.660 158.289  0.00  0.00     0.026 A 
HETATM   14  C   UNK N   1     162.960 159.091 157.005  0.00  0.00     0.003 A 
HETATM   15  C   UNK N   1     162.276 158.234 156.143  0.00  0.00     0.017 A 
HETATM   16  C   UNK N   1     161.931 156.953 156.582  0.00  0.00     0.088 A 
HETATM   17  N   UNK N   1     162.256 156.552 157.842  0.00  0.00    -0.369 N 
ATOM     18  HN  UNK N   1     161.993 155.617 158.152  1.00  0.00     0.165 HD
ENDBRANCH  11  12
ENDBRANCH  10  11
ENDBRANCH   9  10
ENDBRANCH   6   9
BRANCH   3  19
HETATM   19  C   UNK N   1     167.035 158.519 157.007  0.00  0.00    -0.052 A 
HETATM   20  C   UNK N   1     166.372 159.560 156.340  0.00  0.00     0.007 A 
HETATM   21  C   UNK N   1     166.532 160.883 156.760  0.00  0.00     0.001 A 
HETATM   22  C   UNK N   1     167.344 161.175 157.858  0.00  0.00     0.000 A 
HETATM   23  C   UNK N   1     168.001 160.145 158.535  0.00  0.00     0.001 A 
HETATM   24  C   UNK N   1     167.850 158.823 158.109  0.00  0.00     0.007 A 
ENDBRANCH   3  19
BRANCH   1  25
HETATM   25  C   UNK N   1     166.688 155.359 153.813  0.00  0.00     0.264 C 
HETATM   26  O   UNK N   1     166.414 155.756 152.686  0.00  0.00    -0.265 OA
BRANCH  25  27
HETATM   27  O   UNK N   1     167.884 154.772 154.059  0.00  0.00    -0.326 OA
HETATM   28  C   UNK N   1     169.075 155.448 153.922  0.00  0.00     0.213 C 
ENDBRANCH  25  27
ENDBRANCH   1  25
TORSDOF 7
ENDMDL
MODEL 8
REMARK VINA RESULT:      -5.0      2.704      4.833
REMARK  7 active torsions:
REMARK  status: ('A' for Active; 'I' for Inactive)
REMARK    1  A    between atoms: O_2  and  C_3 
REMARK    2  A    between atoms: C_5  and  C_3 
REMARK    3  A    between atoms: C_7  and  C_8 
REMARK       I    between atoms: N_15  and  C_16 
REMARK    4  A    between atoms: C_16  and  C_18 
REMARK    5  A    between atoms: C_18  and  S_19 
REMARK    6  A    between atoms: S_19  and  C_20 
REMARK    7  A    between atoms: C_20  and  C_21 
ROOT
HETATM    1  C   UNK N   1     167.348 155.276 159.052  0.00  0.00     0.104 C 
HETATM    2  C   UNK N   1     167.243 156.567 158.222  0.00  0.00     0.027 C 
HETATM    3  C   UNK N   1     166.120 157.462 158.759  0.00  0.00     0.037 C 
HETATM    4  C   UNK N   1     164.770 156.752 158.602  0.00  0.00     0.135 C 
HETATM    5  N   UNK N   1     164.906 155.305 158.632  0.00  0.00    -0.350 N 
HETATM    6  C   UNK N   1     164.053 154.522 157.912  0.00  0.00     0.229 C 
HETATM    7  O   UNK N   1     164.198 153.307 157.901  0.00  0.00    -0.273 OA
HETATM    8  C   UNK N   1     165.967 154.709 159.423  0.00  0.00     0.140 C 
ENDROOT
BRANCH   6   9
HETATM    9  C   UNK N   1     162.914 155.114 157.132  0.00  0.00     0.177 C 
BRANCH   9  10
HETATM   10  S   UNK N   1     163.107 154.796 155.342  0.00  0.00    -0.154 SA
BRANCH  10  11
HETATM   11  C   UNK N   1     163.688 156.487 155.012  0.00  0.00     0.131 C 
BRANCH  11  12
HETATM   12  C   UNK N   1     165.164 156.496 154.852  0.00  0.00     0.018 A 
HETATM   13  C   UNK N   1     165.825 157.707 154.634  0.00  0.00     0.026 A 
HETATM   14  C   UNK N   1     167.210 157.709 154.470  0.00  0.00     0.003 A 
HETATM   15  C   UNK N   1     167.916 156.508 154.533  0.00  0.00     0.017 A 
HETATM   16  C   UNK N   1     167.221 155.317 154.757  0.00  0.00     0.088 A 
HETATM   17  N   UNK N   1     165.869 155.333 154.908  0.00  0.00    -0.369 N 
ATOM     18  HN  UNK N   1     165.373 154.456 155.065  1.00  0.00     0.165 HD
ENDBRANCH  11  12
ENDBRANCH  10  11
ENDBRANCH   9  10
ENDBRANCH   6   9
BRANCH   3  19
HETATM   19  C   UNK N   1     166.079 158.823 158.112  0.00  0.00    -0.052 A 
HETATM   20  C   UNK N   1     164.839 159.407 157.812  0.00  0.00     0.007 A 
HETATM   21  C   UNK N   1     164.778 160.666 157.211  0.00  0.00     0.001 A 
HETATM   22  C   UNK N   1     165.955 161.359 156.916  0.00  0.00     0.000 A 
HETATM   23  C   UNK N   1     167.194 160.790 157.218  0.00  0.00     0.001 A 
HETATM   24  C   UNK N   1     167.257 159.527 157.810  0.00  0.00     0.007 A 
ENDBRANCH   3  19
BRANCH   1  25
HETATM   25  C   UNK N   1     168.149 155.479 160.312  0.00  0.00     0.264 C 
HETATM   26  O   UNK N   1     167.956 154.767 161.291  0.00  0.00    -0.265 OA
BRANCH  25  27
HETATM   27  O   UNK N   1     169.086 156.458 160.352  0.00  0.00    -0.326 OA
HETATM   28  C   UNK N   1     169.598 156.935 161.537  0.00  0.00     0.213 C 
ENDBRANCH  25  27
ENDBRANCH   1  25
TORSDOF 7
ENDMDL
MODEL 9
REMARK VINA RESULT:      -5.0     13.512     15.664
REMARK  7 active torsions:
REMARK  status: ('A' for Active; 'I' for Inactive)
REMARK    1  A    between atoms: O_2  and  C_3 
REMARK    2  A    between atoms: C_5  and  C_3 
REMARK    3  A    between atoms: C_7  and  C_8 
REMARK       I    between atoms: N_15  and  C_16 
REMARK    4  A    between atoms: C_16  and  C_18 
REMARK    5  A    between atoms: C_18  and  S_19 
REMARK    6  A    between atoms: S_19  and  C_20 
REMARK    7  A    between atoms: C_20  and  C_21 
ROOT
HETATM    1  C   UNK N   1     156.638 144.309 154.450  0.00  0.00     0.104 C 
HETATM    2  C   UNK N   1     155.898 145.397 155.247  0.00  0.00     0.027 C 
HETATM    3  C   UNK N   1     156.806 146.612 155.472  0.00  0.00     0.037 C 
HETATM    4  C   UNK N   1     158.011 146.208 156.330  0.00  0.00     0.135 C 
HETATM    5  N   UNK N   1     158.352 144.804 156.170  0.00  0.00    -0.350 N 
HETATM    6  C   UNK N   1     158.886 144.106 157.212  0.00  0.00     0.229 C 
HETATM    7  O   UNK N   1     159.129 142.913 157.090  0.00  0.00    -0.273 OA
HETATM    8  C   UNK N   1     158.102 144.155 154.896  0.00  0.00     0.140 C 
ENDROOT
BRANCH   6   9
HETATM    9  C   UNK N   1     159.206 144.771 158.520  0.00  0.00     0.177 C 
BRANCH   9  10
HETATM   10  S   UNK N   1     157.918 144.415 159.769  0.00  0.00    -0.154 SA
BRANCH  10  11
HETATM   11  C   UNK N   1     157.540 146.176 160.014  0.00  0.00     0.131 C 
BRANCH  11  12
HETATM   12  C   UNK N   1     156.099 146.428 159.758  0.00  0.00     0.018 A 
HETATM   13  C   UNK N   1     155.388 145.567 158.919  0.00  0.00     0.026 A 
HETATM   14  C   UNK N   1     154.039 145.817 158.670  0.00  0.00     0.003 A 
HETATM   15  C   UNK N   1     153.416 146.914 159.266  0.00  0.00     0.017 A 
HETATM   16  C   UNK N   1     154.159 147.750 160.103  0.00  0.00     0.088 A 
HETATM   17  N   UNK N   1     155.477 147.496 160.329  0.00  0.00    -0.369 N 
ATOM     18  HN  UNK N   1     156.008 148.118 160.937  1.00  0.00     0.165 HD
ENDBRANCH  11  12
ENDBRANCH  10  11
ENDBRANCH   9  10
ENDBRANCH   6   9
BRANCH   3  19
HETATM   19  C   UNK N   1     156.091 147.788 156.085  0.00  0.00    -0.052 A 
HETATM   20  C   UNK N   1     156.798 148.666 156.920  0.00  0.00     0.007 A 
HETATM   21  C   UNK N   1     156.154 149.761 157.501  0.00  0.00     0.001 A 
HETATM   22  C   UNK N   1     154.802 149.997 157.241  0.00  0.00     0.000 A 
HETATM   23  C   UNK N   1     154.090 149.134 156.404  0.00  0.00     0.001 A 
HETATM   24  C   UNK N   1     154.731 148.032 155.831  0.00  0.00     0.007 A 
ENDBRANCH   3  19
BRANCH   1  25
HETATM   25  C   UNK N   1     156.603 144.575 152.967  0.00  0.00     0.264 C 
HETATM   26  O   UNK N   1     157.632 144.853 152.363  0.00  0.00    -0.265 OA
BRANCH  25  27
HETATM   27  O   UNK N   1     155.421 144.503 152.308  0.00  0.00    -0.326 OA
HETATM   28  C   UNK N   1     155.238 145.063 151.065  0.00  0.00     0.213 C 
ENDBRANCH  25  27
ENDBRANCH   1  25
TORSDOF 7
ENDMDL
