MODEL 1
REMARK VINA RESULT:      -6.7      0.000      0.000
REMARK  4 active torsions:
REMARK  status: ('A' for Active; 'I' for Inactive)
REMARK    1  A    between atoms: C_4  and  C_5 
REMARK    2  A    between atoms: C_7  and  C_8 
REMARK       I    between atoms: C_8  and  N_10 
REMARK    3  A    between atoms: C_14  and  C_16 
REMARK    4  A    between atoms: C_16  and  O_17 
ROOT
HETATM    1  C   UNK N   1     168.224 151.893 154.619  0.00  0.00     0.048 A 
HETATM    2  C   UNK N   1     167.784 152.879 155.542  0.00  0.00     0.048 A 
HETATM    3  C   UNK N   1     167.499 154.181 155.093  0.00  0.00     0.051 A 
HETATM    4  C   UNK N   1     167.665 154.442 153.736  0.00  0.00     0.057 A 
HETATM    5  C   UNK N   1     167.492 155.552 152.941  0.00  0.00     0.044 A 
HETATM    6  C   UNK N   1     167.040 156.906 153.365  0.00  0.00     0.071 C 
HETATM    7  N   UNK N   1     167.809 155.218 151.667  0.00  0.00    -0.263 N 
ATOM      8  HN  UNK N   1     167.777 155.833 150.855  1.00  0.00     0.194 HD
HETATM    9  O   UNK N   1     168.162 153.957 151.671  0.00  0.00    -0.219 OA
HETATM   10  C   UNK N   1     168.086 153.474 152.886  0.00  0.00     0.184 A 
HETATM   11  N   UNK N   1     168.368 152.214 153.293  0.00  0.00    -0.334 N 
ATOM     12  HN  UNK N   1     168.681 151.512 152.622  1.00  0.00     0.168 HD
ENDROOT
BRANCH   3  13
HETATM   13  C   UNK N   1     167.026 155.227 156.014  0.00  0.00     0.255 C 
HETATM   14  O   UNK N   1     167.855 155.871 156.642  0.00  0.00    -0.267 OA
HETATM   15  N   UNK N   1     165.695 155.435 156.218  0.00  0.00    -0.347 N 
HETATM   16  C   UNK N   1     164.705 154.683 155.468  0.00  0.00     0.126 C 
HETATM   17  C   UNK N   1     165.260 156.420 157.200  0.00  0.00     0.137 C 
HETATM   18  C   UNK N   1     163.677 155.637 154.857  0.00  0.00     0.021 C 
HETATM   19  C   UNK N   1     163.152 156.676 155.868  0.00  0.00     0.014 C 
HETATM   20  C   UNK N   1     163.732 156.526 157.284  0.00  0.00    -0.006 C 
HETATM   21  C   UNK N   1     163.160 155.285 157.953  0.00  0.00     0.019 C 
BRANCH  20  22
HETATM   22  C   UNK N   1     163.345 157.723 158.141  0.00  0.00     0.175 C 
BRANCH  22  23
HETATM   23  O   UNK N   1     162.941 158.801 157.349  0.00  0.00    -0.400 OA
HETATM   24  H   UNK N   1     163.590 159.518 157.423  0.00  0.00     0.209 HD
ENDBRANCH  22  23
ENDBRANCH  20  22
ENDBRANCH   3  13
BRANCH   1  25
HETATM   25  C   UNK N   1     168.523 150.524 155.084  0.00  0.00     0.022 A 
HETATM   26  C   UNK N   1     167.606 149.610 155.576  0.00  0.00     0.048 A 
HETATM   27  C   UNK N   1     168.355 148.486 155.876  0.00  0.00     0.050 A 
HETATM   28  C   UNK N   1     167.823 147.217 156.441  0.00  0.00     0.076 C 
HETATM   29  O   UNK N   1     169.621 148.687 155.593  0.00  0.00    -0.319 OA
HETATM   30  C   UNK N   1     169.758 149.899 155.116  0.00  0.00     0.062 A 
HETATM   31  C   UNK N   1     171.065 150.471 154.687  0.00  0.00     0.077 C 
ENDBRANCH   1  25
TORSDOF 4
ENDMDL
MODEL 2
REMARK VINA RESULT:      -6.7      2.049      2.412
REMARK  4 active torsions:
REMARK  status: ('A' for Active; 'I' for Inactive)
REMARK    1  A    between atoms: C_4  and  C_5 
REMARK    2  A    between atoms: C_7  and  C_8 
REMARK       I    between atoms: C_8  and  N_10 
REMARK    3  A    between atoms: C_14  and  C_16 
REMARK    4  A    between atoms: C_16  and  O_17 
ROOT
HETATM    1  C   UNK N   1     168.874 152.546 154.034  0.00  0.00     0.048 A 
HETATM    2  C   UNK N   1     167.817 152.777 154.956  0.00  0.00     0.048 A 
HETATM    3  C   UNK N   1     167.503 154.091 155.346  0.00  0.00     0.051 A 
HETATM    4  C   UNK N   1     168.259 155.122 154.796  0.00  0.00     0.057 A 
HETATM    5  C   UNK N   1     168.255 156.493 154.923  0.00  0.00     0.044 A 
HETATM    6  C   UNK N   1     167.352 157.319 155.772  0.00  0.00     0.071 C 
HETATM    7  N   UNK N   1     169.233 156.997 154.133  0.00  0.00    -0.263 N 
ATOM      8  HN  UNK N   1     169.470 157.981 154.018  1.00  0.00     0.194 HD
HETATM    9  O   UNK N   1     169.817 155.985 153.541  0.00  0.00    -0.219 OA
HETATM   10  C   UNK N   1     169.259 154.861 153.918  0.00  0.00     0.184 A 
HETATM   11  N   UNK N   1     169.582 153.606 153.527  0.00  0.00    -0.334 N 
ATOM     12  HN  UNK N   1     170.341 153.451 152.864  1.00  0.00     0.168 HD
ENDROOT
BRANCH   3  13
HETATM   13  C   UNK N   1     166.406 154.373 156.286  0.00  0.00     0.255 C 
HETATM   14  O   UNK N   1     166.595 154.179 157.478  0.00  0.00    -0.267 OA
HETATM   15  N   UNK N   1     165.183 154.778 155.840  0.00  0.00    -0.347 N 
HETATM   16  C   UNK N   1     164.956 155.022 154.427  0.00  0.00     0.126 C 
HETATM   17  C   UNK N   1     164.094 154.968 156.789  0.00  0.00     0.137 C 
HETATM   18  C   UNK N   1     164.301 156.391 154.232  0.00  0.00     0.021 C 
HETATM   19  C   UNK N   1     163.112 156.626 155.185  0.00  0.00     0.014 C 
HETATM   20  C   UNK N   1     162.802 155.436 156.109  0.00  0.00    -0.006 C 
HETATM   21  C   UNK N   1     162.194 154.296 155.304  0.00  0.00     0.019 C 
BRANCH  20  22
HETATM   22  C   UNK N   1     161.782 155.841 157.164  0.00  0.00     0.175 C 
BRANCH  22  23
HETATM   23  O   UNK N   1     160.491 155.459 156.791  0.00  0.00    -0.400 OA
HETATM   24  H   UNK N   1     160.493 155.180 155.862  0.00  0.00     0.209 HD
ENDBRANCH  22  23
ENDBRANCH  20  22
ENDBRANCH   3  13
BRANCH   1  25
HETATM   25  C   UNK N   1     169.207 151.169 153.618  0.00  0.00     0.022 A 
HETATM   26  C   UNK N   1     169.073 150.646 152.343  0.00  0.00     0.048 A 
HETATM   27  C   UNK N   1     169.508 149.337 152.453  0.00  0.00     0.050 A 
HETATM   28  C   UNK N   1     169.557 148.347 151.344  0.00  0.00     0.076 C 
HETATM   29  O   UNK N   1     169.877 149.075 153.685  0.00  0.00    -0.319 OA
HETATM   30  C   UNK N   1     169.710 150.152 154.411  0.00  0.00     0.062 A 
HETATM   31  C   UNK N   1     170.029 150.220 155.865  0.00  0.00     0.077 C 
ENDBRANCH   1  25
TORSDOF 4
ENDMDL
MODEL 3
REMARK VINA RESULT:      -6.6      1.887      2.342
REMARK  4 active torsions:
REMARK  status: ('A' for Active; 'I' for Inactive)
REMARK    1  A    between atoms: C_4  and  C_5 
REMARK    2  A    between atoms: C_7  and  C_8 
REMARK       I    between atoms: C_8  and  N_10 
REMARK    3  A    between atoms: C_14  and  C_16 
REMARK    4  A    between atoms: C_16  and  O_17 
ROOT
HETATM    1  C   UNK N   1     168.707 153.048 154.537  0.00  0.00     0.048 A 
HETATM    2  C   UNK N   1     167.388 153.424 154.910  0.00  0.00     0.048 A 
HETATM    3  C   UNK N   1     166.945 154.740 154.685  0.00  0.00     0.051 A 
HETATM    4  C   UNK N   1     167.841 155.627 154.095  0.00  0.00     0.057 A 
HETATM    5  C   UNK N   1     167.782 156.951 153.724  0.00  0.00     0.044 A 
HETATM    6  C   UNK N   1     166.629 157.881 153.876  0.00  0.00     0.071 C 
HETATM    7  N   UNK N   1     168.975 157.295 153.183  0.00  0.00    -0.263 N 
ATOM      8  HN  UNK N   1     169.230 158.211 152.816  1.00  0.00     0.194 HD
HETATM    9  O   UNK N   1     169.740 156.232 153.215  0.00  0.00    -0.219 OA
HETATM   10  C   UNK N   1     169.091 155.229 153.752  0.00  0.00     0.184 A 
HETATM   11  N   UNK N   1     169.542 153.970 153.958  0.00  0.00    -0.334 N 
ATOM     12  HN  UNK N   1     170.490 153.709 153.686  1.00  0.00     0.168 HD
ENDROOT
BRANCH   3  13
HETATM   13  C   UNK N   1     165.582 155.165 155.042  0.00  0.00     0.255 C 
HETATM   14  O   UNK N   1     164.739 155.227 154.159  0.00  0.00    -0.267 OA
HETATM   15  N   UNK N   1     165.275 155.546 156.315  0.00  0.00    -0.347 N 
HETATM   16  C   UNK N   1     166.268 155.462 157.371  0.00  0.00     0.126 C 
HETATM   17  C   UNK N   1     163.939 156.042 156.617  0.00  0.00     0.137 C 
HETATM   18  C   UNK N   1     165.682 154.733 158.582  0.00  0.00     0.021 C 
HETATM   19  C   UNK N   1     164.283 155.251 158.971  0.00  0.00     0.014 C 
HETATM   20  C   UNK N   1     163.774 156.409 158.097  0.00  0.00    -0.006 C 
HETATM   21  C   UNK N   1     164.553 157.679 158.409  0.00  0.00     0.019 C 
BRANCH  20  22
HETATM   22  C   UNK N   1     162.308 156.691 158.398  0.00  0.00     0.175 C 
BRANCH  22  23
HETATM   23  O   UNK N   1     161.516 155.569 158.142  0.00  0.00    -0.400 OA
HETATM   24  H   UNK N   1     160.581 155.826 158.141  0.00  0.00     0.209 HD
ENDBRANCH  22  23
ENDBRANCH  20  22
ENDBRANCH   3  13
BRANCH   1  25
HETATM   25  C   UNK N   1     169.177 151.668 154.767  0.00  0.00     0.022 A 
HETATM   26  C   UNK N   1     169.419 151.082 155.999  0.00  0.00     0.048 A 
HETATM   27  C   UNK N   1     169.838 149.797 155.701  0.00  0.00     0.050 A 
HETATM   28  C   UNK N   1     170.224 148.762 156.696  0.00  0.00     0.076 C 
HETATM   29  O   UNK N   1     169.852 149.606 154.403  0.00  0.00    -0.319 OA
HETATM   30  C   UNK N   1     169.462 150.707 153.812  0.00  0.00     0.062 A 
HETATM   31  C   UNK N   1     169.355 150.853 152.333  0.00  0.00     0.077 C 
ENDBRANCH   1  25
TORSDOF 4
ENDMDL
MODEL 4
REMARK VINA RESULT:      -6.6      2.894      4.889
REMARK  4 active torsions:
REMARK  status: ('A' for Active; 'I' for Inactive)
REMARK    1  A    between atoms: C_4  and  C_5 
REMARK    2  A    between atoms: C_7  and  C_8 
REMARK       I    between atoms: C_8  and  N_10 
REMARK    3  A    between atoms: C_14  and  C_16 
REMARK    4  A    between atoms: C_16  and  O_17 
ROOT
HETATM    1  C   UNK N   1     167.290 155.151 154.746  0.00  0.00     0.048 A 
HETATM    2  C   UNK N   1     166.187 154.751 155.548  0.00  0.00     0.048 A 
HETATM    3  C   UNK N   1     166.058 155.248 156.858  0.00  0.00     0.051 A 
HETATM    4  C   UNK N   1     167.038 156.127 157.311  0.00  0.00     0.057 A 
HETATM    5  C   UNK N   1     167.252 156.805 158.489  0.00  0.00     0.044 A 
HETATM    6  C   UNK N   1     166.410 156.772 159.717  0.00  0.00     0.071 C 
HETATM    7  N   UNK N   1     168.388 157.533 158.361  0.00  0.00    -0.263 N 
ATOM      8  HN  UNK N   1     168.800 158.138 159.070  1.00  0.00     0.194 HD
HETATM    9  O   UNK N   1     168.856 157.316 157.158  0.00  0.00    -0.219 OA
HETATM   10  C   UNK N   1     168.074 156.485 156.514  0.00  0.00     0.184 A 
HETATM   11  N   UNK N   1     168.222 156.022 155.251  0.00  0.00    -0.334 N 
ATOM     12  HN  UNK N   1     169.017 156.316 154.683  1.00  0.00     0.168 HD
ENDROOT
BRANCH   3  13
HETATM   13  C   UNK N   1     164.923 154.870 157.715  0.00  0.00     0.255 C 
HETATM   14  O   UNK N   1     164.980 153.813 158.327  0.00  0.00    -0.267 OA
HETATM   15  N   UNK N   1     163.802 155.644 157.780  0.00  0.00    -0.347 N 
HETATM   16  C   UNK N   1     163.733 156.906 157.066  0.00  0.00     0.126 C 
HETATM   17  C   UNK N   1     162.663 155.199 158.572  0.00  0.00     0.137 C 
HETATM   18  C   UNK N   1     163.265 158.015 158.010  0.00  0.00     0.021 C 
HETATM   19  C   UNK N   1     162.032 157.610 158.843  0.00  0.00     0.014 C 
HETATM   20  C   UNK N   1     161.501 156.200 158.537  0.00  0.00    -0.006 C 
HETATM   21  C   UNK N   1     160.836 156.179 157.168  0.00  0.00     0.019 C 
BRANCH  20  22
HETATM   22  C   UNK N   1     160.446 155.802 159.560  0.00  0.00     0.175 C 
BRANCH  22  23
HETATM   23  O   UNK N   1     160.791 154.609 160.201  0.00  0.00    -0.400 OA
HETATM   24  H   UNK N   1     161.688 154.684 160.562  0.00  0.00     0.209 HD
ENDBRANCH  22  23
ENDBRANCH  20  22
ENDBRANCH   3  13
BRANCH   1  25
HETATM   25  C   UNK N   1     167.431 154.636 153.370  0.00  0.00     0.022 A 
HETATM   26  C   UNK N   1     166.894 155.204 152.226  0.00  0.00     0.048 A 
HETATM   27  C   UNK N   1     167.294 154.369 151.198  0.00  0.00     0.050 A 
HETATM   28  C   UNK N   1     166.966 154.551 149.759  0.00  0.00     0.076 C 
HETATM   29  O   UNK N   1     168.013 153.375 151.664  0.00  0.00    -0.319 OA
HETATM   30  C   UNK N   1     168.115 153.503 152.963  0.00  0.00     0.062 A 
HETATM   31  C   UNK N   1     168.866 152.549 153.828  0.00  0.00     0.077 C 
ENDBRANCH   1  25
TORSDOF 4
ENDMDL
MODEL 5
REMARK VINA RESULT:      -6.5      3.194      4.587
REMARK  4 active torsions:
REMARK  status: ('A' for Active; 'I' for Inactive)
REMARK    1  A    between atoms: C_4  and  C_5 
REMARK    2  A    between atoms: C_7  and  C_8 
REMARK       I    between atoms: C_8  and  N_10 
REMARK    3  A    between atoms: C_14  and  C_16 
REMARK    4  A    between atoms: C_16  and  O_17 
ROOT
HETATM    1  C   UNK N   1     167.221 155.055 152.535  0.00  0.00     0.048 A 
HETATM    2  C   UNK N   1     166.096 155.787 153.001  0.00  0.00     0.048 A 
HETATM    3  C   UNK N   1     166.173 156.493 154.215  0.00  0.00     0.051 A 
HETATM    4  C   UNK N   1     167.376 156.438 154.914  0.00  0.00     0.057 A 
HETATM    5  C   UNK N   1     167.828 156.978 156.096  0.00  0.00     0.044 A 
HETATM    6  C   UNK N   1     167.073 157.849 157.039  0.00  0.00     0.071 C 
HETATM    7  N   UNK N   1     169.110 156.583 156.282  0.00  0.00    -0.263 N 
ATOM      8  HN  UNK N   1     169.709 156.827 157.070  1.00  0.00     0.194 HD
HETATM    9  O   UNK N   1     169.439 155.832 155.261  0.00  0.00    -0.219 OA
HETATM   10  C   UNK N   1     168.428 155.730 154.435  0.00  0.00     0.184 A 
HETATM   11  N   UNK N   1     168.379 155.042 153.270  0.00  0.00    -0.334 N 
ATOM     12  HN  UNK N   1     169.193 154.521 152.944  1.00  0.00     0.168 HD
ENDROOT
BRANCH   3  13
HETATM   13  C   UNK N   1     165.036 157.275 154.724  0.00  0.00     0.255 C 
HETATM   14  O   UNK N   1     164.950 158.454 154.411  0.00  0.00    -0.267 OA
HETATM   15  N   UNK N   1     164.129 156.723 155.579  0.00  0.00    -0.347 N 
HETATM   16  C   UNK N   1     164.217 155.321 155.945  0.00  0.00     0.126 C 
HETATM   17  C   UNK N   1     163.062 157.548 156.132  0.00  0.00     0.137 C 
HETATM   18  C   UNK N   1     162.858 154.645 155.755  0.00  0.00     0.021 C 
HETATM   19  C   UNK N   1     161.696 155.458 156.362  0.00  0.00     0.014 C 
HETATM   20  C   UNK N   1     162.134 156.755 157.061  0.00  0.00    -0.006 C 
HETATM   21  C   UNK N   1     162.853 156.429 158.362  0.00  0.00     0.019 C 
BRANCH  20  22
HETATM   22  C   UNK N   1     160.917 157.599 157.415  0.00  0.00     0.175 C 
BRANCH  22  23
HETATM   23  O   UNK N   1     159.741 157.012 156.940  0.00  0.00    -0.400 OA
HETATM   24  H   UNK N   1     158.981 157.380 157.415  0.00  0.00     0.209 HD
ENDBRANCH  22  23
ENDBRANCH  20  22
ENDBRANCH   3  13
BRANCH   1  25
HETATM   25  C   UNK N   1     167.148 154.315 151.260  0.00  0.00     0.022 A 
HETATM   26  C   UNK N   1     166.414 154.681 150.144  0.00  0.00     0.048 A 
HETATM   27  C   UNK N   1     166.662 153.683 149.217  0.00  0.00     0.050 A 
HETATM   28  C   UNK N   1     166.096 153.620 147.843  0.00  0.00     0.076 C 
HETATM   29  O   UNK N   1     167.476 152.783 149.716  0.00  0.00    -0.319 OA
HETATM   30  C   UNK N   1     167.787 153.129 150.940  0.00  0.00     0.062 A 
HETATM   31  C   UNK N   1     168.697 152.335 151.813  0.00  0.00     0.077 C 
ENDBRANCH   1  25
TORSDOF 4
ENDMDL
MODEL 6
REMARK VINA RESULT:      -6.4      2.766      4.933
REMARK  4 active torsions:
REMARK  status: ('A' for Active; 'I' for Inactive)
REMARK    1  A    between atoms: C_4  and  C_5 
REMARK    2  A    between atoms: C_7  and  C_8 
REMARK       I    between atoms: C_8  and  N_10 
REMARK    3  A    between atoms: C_14  and  C_16 
REMARK    4  A    between atoms: C_16  and  O_17 
ROOT
HETATM    1  C   UNK N   1     166.942 154.343 155.316  0.00  0.00     0.048 A 
HETATM    2  C   UNK N   1     166.579 155.708 155.158  0.00  0.00     0.048 A 
HETATM    3  C   UNK N   1     165.446 156.212 155.821  0.00  0.00     0.051 A 
HETATM    4  C   UNK N   1     164.721 155.328 156.616  0.00  0.00     0.057 A 
HETATM    5  C   UNK N   1     163.594 155.439 157.398  0.00  0.00     0.044 A 
HETATM    6  C   UNK N   1     162.764 156.655 157.619  0.00  0.00     0.071 C 
HETATM    7  N   UNK N   1     163.341 154.230 157.955  0.00  0.00    -0.263 N 
ATOM      8  HN  UNK N   1     162.571 154.004 158.583  1.00  0.00     0.194 HD
HETATM    9  O   UNK N   1     164.270 153.407 157.538  0.00  0.00    -0.219 OA
HETATM   10  C   UNK N   1     165.100 154.033 156.742  0.00  0.00     0.184 A 
HETATM   11  N   UNK N   1     166.186 153.523 156.115  0.00  0.00    -0.334 N 
ATOM     12  HN  UNK N   1     166.439 152.542 156.235  1.00  0.00     0.168 HD
ENDROOT
BRANCH   3  13
HETATM   13  C   UNK N   1     165.045 157.622 155.696  0.00  0.00     0.255 C 
HETATM   14  O   UNK N   1     164.334 157.947 154.755  0.00  0.00    -0.267 OA
HETATM   15  N   UNK N   1     165.505 158.564 156.567  0.00  0.00    -0.347 N 
HETATM   16  C   UNK N   1     166.338 158.184 157.694  0.00  0.00     0.126 C 
HETATM   17  C   UNK N   1     165.158 159.965 156.367  0.00  0.00     0.137 C 
HETATM   18  C   UNK N   1     165.784 158.794 158.983  0.00  0.00     0.021 C 
HETATM   19  C   UNK N   1     165.440 160.290 158.836  0.00  0.00     0.014 C 
HETATM   20  C   UNK N   1     165.752 160.875 157.449  0.00  0.00    -0.006 C 
HETATM   21  C   UNK N   1     167.258 160.994 157.260  0.00  0.00     0.019 C 
BRANCH  20  22
HETATM   22  C   UNK N   1     165.166 162.275 157.324  0.00  0.00     0.175 C 
BRANCH  22  23
HETATM   23  O   UNK N   1     165.479 162.843 156.087  0.00  0.00    -0.400 OA
HETATM   24  H   UNK N   1     164.664 162.988 155.582  0.00  0.00     0.209 HD
ENDBRANCH  22  23
ENDBRANCH  20  22
ENDBRANCH   3  13
BRANCH   1  25
HETATM   25  C   UNK N   1     168.132 153.808 154.625  0.00  0.00     0.022 A 
HETATM   26  C   UNK N   1     168.427 152.470 154.423  0.00  0.00     0.048 A 
HETATM   27  C   UNK N   1     169.631 152.475 153.740  0.00  0.00     0.050 A 
HETATM   28  C   UNK N   1     170.373 151.268 153.289  0.00  0.00     0.076 C 
HETATM   29  O   UNK N   1     170.042 153.705 153.538  0.00  0.00    -0.319 OA
HETATM   30  C   UNK N   1     169.168 154.530 154.056  0.00  0.00     0.062 A 
HETATM   31  C   UNK N   1     169.310 156.013 154.011  0.00  0.00     0.077 C 
ENDBRANCH   1  25
TORSDOF 4
ENDMDL
MODEL 7
REMARK VINA RESULT:      -6.2      4.093      5.784
REMARK  4 active torsions:
REMARK  status: ('A' for Active; 'I' for Inactive)
REMARK    1  A    between atoms: C_4  and  C_5 
REMARK    2  A    between atoms: C_7  and  C_8 
REMARK       I    between atoms: C_8  and  N_10 
REMARK    3  A    between atoms: C_14  and  C_16 
REMARK    4  A    between atoms: C_16  and  O_17 
ROOT
HETATM    1  C   UNK N   1     166.248 156.907 154.521  0.00  0.00     0.048 A 
HETATM    2  C   UNK N   1     165.208 156.383 155.335  0.00  0.00     0.048 A 
HETATM    3  C   UNK N   1     164.509 157.233 156.212  0.00  0.00     0.051 A 
HETATM    4  C   UNK N   1     164.880 158.574 156.236  0.00  0.00     0.057 A 
HETATM    5  C   UNK N   1     164.448 159.680 156.933  0.00  0.00     0.044 A 
HETATM    6  C   UNK N   1     163.363 159.739 157.952  0.00  0.00     0.071 C 
HETATM    7  N   UNK N   1     165.185 160.746 156.541  0.00  0.00    -0.263 N 
ATOM      8  HN  UNK N   1     165.094 161.702 156.882  1.00  0.00     0.194 HD
HETATM    9  O   UNK N   1     166.037 160.321 155.641  0.00  0.00    -0.219 OA
HETATM   10  C   UNK N   1     165.876 159.037 155.442  0.00  0.00     0.184 A 
HETATM   11  N   UNK N   1     166.564 158.240 154.591  0.00  0.00    -0.334 N 
ATOM     12  HN  UNK N   1     167.308 158.626 154.009  1.00  0.00     0.168 HD
ENDROOT
BRANCH   3  13
HETATM   13  C   UNK N   1     163.417 156.732 157.061  0.00  0.00     0.255 C 
HETATM   14  O   UNK N   1     162.291 156.668 156.587  0.00  0.00    -0.267 OA
HETATM   15  N   UNK N   1     163.633 156.407 158.367  0.00  0.00    -0.347 N 
HETATM   16  C   UNK N   1     164.969 156.468 158.932  0.00  0.00     0.126 C 
HETATM   17  C   UNK N   1     162.513 155.995 159.204  0.00  0.00     0.137 C 
HETATM   18  C   UNK N   1     165.289 155.160 159.658  0.00  0.00     0.021 C 
HETATM   19  C   UNK N   1     164.151 154.702 160.592  0.00  0.00     0.014 C 
HETATM   20  C   UNK N   1     162.948 155.657 160.635  0.00  0.00    -0.006 C 
HETATM   21  C   UNK N   1     163.320 156.931 161.381  0.00  0.00     0.019 C 
BRANCH  20  22
HETATM   22  C   UNK N   1     161.790 155.014 161.387  0.00  0.00     0.175 C 
BRANCH  22  23
HETATM   23  O   UNK N   1     160.832 154.512 160.502  0.00  0.00    -0.400 OA
HETATM   24  H   UNK N   1     160.343 153.792 160.929  0.00  0.00     0.209 HD
ENDBRANCH  22  23
ENDBRANCH  20  22
ENDBRANCH   3  13
BRANCH   1  25
HETATM   25  C   UNK N   1     166.983 156.021 153.597  0.00  0.00     0.022 A 
HETATM   26  C   UNK N   1     166.466 155.409 152.467  0.00  0.00     0.048 A 
HETATM   27  C   UNK N   1     167.525 154.691 151.940  0.00  0.00     0.050 A 
HETATM   28  C   UNK N   1     167.476 153.853 150.713  0.00  0.00     0.076 C 
HETATM   29  O   UNK N   1     168.599 154.845 152.678  0.00  0.00    -0.319 OA
HETATM   30  C   UNK N   1     168.311 155.637 153.680  0.00  0.00     0.062 A 
HETATM   31  C   UNK N   1     169.296 156.035 154.724  0.00  0.00     0.077 C 
ENDBRANCH   1  25
TORSDOF 4
ENDMDL
MODEL 8
REMARK VINA RESULT:      -6.1     11.518     13.348
REMARK  4 active torsions:
REMARK  status: ('A' for Active; 'I' for Inactive)
REMARK    1  A    between atoms: C_4  and  C_5 
REMARK    2  A    between atoms: C_7  and  C_8 
REMARK       I    between atoms: C_8  and  N_10 
REMARK    3  A    between atoms: C_14  and  C_16 
REMARK    4  A    between atoms: C_16  and  O_17 
ROOT
HETATM    1  C   UNK N   1     159.183 144.238 157.762  0.00  0.00     0.048 A 
HETATM    2  C   UNK N   1     158.822 144.593 156.434  0.00  0.00     0.048 A 
HETATM    3  C   UNK N   1     158.243 145.848 156.178  0.00  0.00     0.051 A 
HETATM    4  C   UNK N   1     158.049 146.700 157.262  0.00  0.00     0.057 A 
HETATM    5  C   UNK N   1     157.532 147.966 157.412  0.00  0.00     0.044 A 
HETATM    6  C   UNK N   1     156.982 148.849 156.346  0.00  0.00     0.071 C 
HETATM    7  N   UNK N   1     157.597 148.301 158.723  0.00  0.00    -0.263 N 
ATOM      8  HN  UNK N   1     157.289 149.180 159.138  1.00  0.00     0.194 HD
HETATM    9  O   UNK N   1     158.131 147.288 159.358  0.00  0.00    -0.219 OA
HETATM   10  C   UNK N   1     158.408 146.325 158.515  0.00  0.00     0.184 A 
HETATM   11  N   UNK N   1     158.966 145.123 158.788  0.00  0.00    -0.334 N 
ATOM     12  HN  UNK N   1     159.224 144.879 159.745  1.00  0.00     0.168 HD
ENDROOT
BRANCH   3  13
HETATM   13  C   UNK N   1     157.869 146.259 154.815  0.00  0.00     0.255 C 
HETATM   14  O   UNK N   1     158.683 146.884 154.150  0.00  0.00    -0.267 OA
HETATM   15  N   UNK N   1     156.623 146.011 154.322  0.00  0.00    -0.347 N 
HETATM   16  C   UNK N   1     155.656 145.259 155.102  0.00  0.00     0.126 C 
HETATM   17  C   UNK N   1     156.256 146.506 153.002  0.00  0.00     0.137 C 
HETATM   18  C   UNK N   1     155.059 144.137 154.251  0.00  0.00     0.021 C 
HETATM   19  C   UNK N   1     154.614 144.617 152.856  0.00  0.00     0.014 C 
HETATM   20  C   UNK N   1     154.824 146.120 152.611  0.00  0.00    -0.006 C 
HETATM   21  C   UNK N   1     153.826 146.926 153.429  0.00  0.00     0.019 C 
BRANCH  20  22
HETATM   22  C   UNK N   1     154.583 146.454 151.145  0.00  0.00     0.175 C 
BRANCH  22  23
HETATM   23  O   UNK N   1     155.691 146.118 150.363  0.00  0.00    -0.400 OA
HETATM   24  H   UNK N   1     156.194 146.920 150.153  0.00  0.00     0.209 HD
ENDBRANCH  22  23
ENDBRANCH  20  22
ENDBRANCH   3  13
BRANCH   1  25
HETATM   25  C   UNK N   1     159.794 142.923 158.038  0.00  0.00     0.022 A 
HETATM   26  C   UNK N   1     161.009 142.468 157.551  0.00  0.00     0.048 A 
HETATM   27  C   UNK N   1     161.146 141.197 158.080  0.00  0.00     0.050 A 
HETATM   28  C   UNK N   1     162.296 140.284 157.849  0.00  0.00     0.076 C 
HETATM   29  O   UNK N   1     160.109 140.894 158.827  0.00  0.00    -0.319 OA
HETATM   30  C   UNK N   1     159.279 141.906 158.824  0.00  0.00     0.062 A 
HETATM   31  C   UNK N   1     157.989 141.914 159.570  0.00  0.00     0.077 C 
ENDBRANCH   1  25
TORSDOF 4
ENDMDL
MODEL 9
REMARK VINA RESULT:      -6.1     12.280     14.567
REMARK  4 active torsions:
REMARK  status: ('A' for Active; 'I' for Inactive)
REMARK    1  A    between atoms: C_4  and  C_5 
REMARK    2  A    between atoms: C_7  and  C_8 
REMARK       I    between atoms: C_8  and  N_10 
REMARK    3  A    between atoms: C_14  and  C_16 
REMARK    4  A    between atoms: C_16  and  O_17 
ROOT
HETATM    1  C   UNK N   1     157.780 145.543 161.677  0.00  0.00     0.048 A 
HETATM    2  C   UNK N   1     157.705 145.315 160.276  0.00  0.00     0.048 A 
HETATM    3  C   UNK N   1     156.450 145.255 159.644  0.00  0.00     0.051 A 
HETATM    4  C   UNK N   1     155.321 145.426 160.439  0.00  0.00     0.057 A 
HETATM    5  C   UNK N   1     153.966 145.437 160.198  0.00  0.00     0.044 A 
HETATM    6  C   UNK N   1     153.279 145.243 158.891  0.00  0.00     0.071 C 
HETATM    7  N   UNK N   1     153.326 145.656 161.372  0.00  0.00    -0.263 N 
ATOM      8  HN  UNK N   1     152.318 145.717 161.508  1.00  0.00     0.194 HD
HETATM    9  O   UNK N   1     154.243 145.777 162.299  0.00  0.00    -0.219 OA
HETATM   10  C   UNK N   1     155.434 145.644 161.772  0.00  0.00     0.184 A 
HETATM   11  N   UNK N   1     156.629 145.706 162.406  0.00  0.00    -0.334 N 
ATOM     12  HN  UNK N   1     156.673 145.872 163.411  1.00  0.00     0.168 HD
ENDROOT
BRANCH   3  13
HETATM   13  C   UNK N   1     156.330 145.035 158.194  0.00  0.00     0.255 C 
HETATM   14  O   UNK N   1     156.392 143.890 157.769  0.00  0.00    -0.267 OA
HETATM   15  N   UNK N   1     156.217 146.084 157.330  0.00  0.00    -0.347 N 
HETATM   16  C   UNK N   1     156.129 147.445 157.828  0.00  0.00     0.126 C 
HETATM   17  C   UNK N   1     156.185 145.837 155.894  0.00  0.00     0.137 C 
HETATM   18  C   UNK N   1     154.941 148.161 157.183  0.00  0.00     0.021 C 
HETATM   19  C   UNK N   1     154.885 147.967 155.654  0.00  0.00     0.014 C 
HETATM   20  C   UNK N   1     156.042 147.131 155.083  0.00  0.00    -0.006 C 
HETATM   21  C   UNK N   1     157.338 147.927 155.138  0.00  0.00     0.019 C 
BRANCH  20  22
HETATM   22  C   UNK N   1     155.777 146.796 153.621  0.00  0.00     0.175 C 
BRANCH  22  23
HETATM   23  O   UNK N   1     156.962 146.469 152.957  0.00  0.00    -0.400 OA
HETATM   24  H   UNK N   1     157.716 146.840 153.440  0.00  0.00     0.209 HD
ENDBRANCH  22  23
ENDBRANCH  20  22
ENDBRANCH   3  13
BRANCH   1  25
HETATM   25  C   UNK N   1     159.094 145.611 162.347  0.00  0.00     0.022 A 
HETATM   26  C   UNK N   1     160.171 146.390 161.958  0.00  0.00     0.048 A 
HETATM   27  C   UNK N   1     161.159 146.113 162.886  0.00  0.00     0.050 A 
HETATM   28  C   UNK N   1     162.522 146.707 162.900  0.00  0.00     0.076 C 
HETATM   29  O   UNK N   1     160.732 145.241 163.769  0.00  0.00    -0.319 OA
HETATM   30  C   UNK N   1     159.497 144.918 163.476  0.00  0.00     0.062 A 
HETATM   31  C   UNK N   1     158.691 143.948 164.270  0.00  0.00     0.077 C 
ENDBRANCH   1  25
TORSDOF 4
ENDMDL
