MODEL 1
REMARK VINA RESULT:      -6.6      0.000      0.000
REMARK  3 active torsions:
REMARK  status: ('A' for Active; 'I' for Inactive)
REMARK    1  A    between atoms: C_3  and  C_2 
REMARK       I    between atoms: N_11  and  C_12 
REMARK    2  A    between atoms: C_12  and  C_14 
REMARK    3  A    between atoms: C_17  and  N_18 
ROOT
HETATM    1  C   UNK N   1     166.764 157.005 153.648  0.00  0.00     0.047 A 
HETATM    2  C   UNK N   1     165.717 156.250 153.104  0.00  0.00     0.022 A 
HETATM    3  C   UNK N   1     165.978 155.205 152.228  0.00  0.00     0.051 A 
HETATM    4  C   UNK N   1     167.295 154.905 151.878  0.00  0.00     0.127 A 
HETATM    5  N   UNK N   1     168.310 155.656 152.397  0.00  0.00    -0.350 N 
ATOM      6  HN  UNK N   1     169.270 155.446 152.125  1.00  0.00     0.166 HD
HETATM    7  C   UNK N   1     168.074 156.677 153.268  0.00  0.00     0.106 A 
ENDROOT
BRANCH   1   8
HETATM    8  C   UNK N   1     166.416 158.058 154.659  0.00  0.00     0.255 C 
HETATM    9  N   UNK N   1     166.489 157.868 156.027  0.00  0.00    -0.336 N 
HETATM   10  C   UNK N   1     166.960 156.619 156.606  0.00  0.00     0.147 C 
HETATM   11  C   UNK N   1     165.959 158.825 157.000  0.00  0.00     0.137 C 
HETATM   12  C   UNK N   1     165.841 155.905 157.402  0.00  0.00     0.148 C 
HETATM   13  N   UNK N   1     164.760 156.819 157.781  0.00  0.00    -0.357 N 
HETATM   14  C   UNK N   1     163.560 156.471 158.270  0.00  0.00     0.091 A 
HETATM   15  C   UNK N   1     164.768 158.146 157.602  0.00  0.00     0.034 A 
HETATM   16  C   UNK N   1     162.778 157.612 158.397  0.00  0.00     0.019 A 
HETATM   17  C   UNK N   1     163.546 158.683 157.956  0.00  0.00     0.028 A 
HETATM   18  O   UNK N   1     165.984 159.114 154.221  0.00  0.00    -0.267 OA
BRANCH  11  19
HETATM   19  C   UNK N   1     165.702 160.266 156.533  0.00  0.00     0.027 C 
HETATM   20  C   UNK N   1     166.741 161.228 157.080  0.00  0.00     0.007 C 
ENDBRANCH  11  19
ENDBRANCH   1   8
BRANCH   4  21
HETATM   21  N   UNK N   1     167.592 153.820 150.979  0.00  0.00    -0.244 N 
HETATM   22  N   UNK N   1     168.046 152.651 151.392  0.00  0.00    -0.297 N 
HETATM   23  C   UNK N   1     168.224 151.870 150.309  0.00  0.00     0.024 A 
ATOM     24  HN  UNK N   1     168.228 152.387 152.360  1.00  0.00     0.187 HD
HETATM   25  C   UNK N   1     168.739 150.478 150.362  0.00  0.00     0.070 C 
HETATM   26  C   UNK N   1     167.869 152.554 149.162  0.00  0.00     0.052 A 
HETATM   27  C   UNK N   1     167.471 153.791 149.628  0.00  0.00     0.034 A 
HETATM   28  C   UNK N   1     166.977 154.898 148.760  0.00  0.00     0.070 C 
ENDBRANCH   4  21
TORSDOF 3
ENDMDL
MODEL 2
REMARK VINA RESULT:      -6.4      1.955      3.027
REMARK  3 active torsions:
REMARK  status: ('A' for Active; 'I' for Inactive)
REMARK    1  A    between atoms: C_3  and  C_2 
REMARK       I    between atoms: N_11  and  C_12 
REMARK    2  A    between atoms: C_12  and  C_14 
REMARK    3  A    between atoms: C_17  and  N_18 
ROOT
HETATM    1  C   UNK N   1     168.057 155.460 155.120  0.00  0.00     0.047 A 
HETATM    2  C   UNK N   1     167.655 154.119 155.139  0.00  0.00     0.022 A 
HETATM    3  C   UNK N   1     167.617 153.373 153.968  0.00  0.00     0.051 A 
HETATM    4  C   UNK N   1     167.978 153.966 152.757  0.00  0.00     0.127 A 
HETATM    5  N   UNK N   1     168.353 155.278 152.742  0.00  0.00    -0.350 N 
ATOM      6  HN  UNK N   1     168.598 155.714 151.853  1.00  0.00     0.166 HD
HETATM    7  C   UNK N   1     168.407 156.022 153.883  0.00  0.00     0.106 A 
ENDROOT
BRANCH   1   8
HETATM    8  C   UNK N   1     168.164 156.177 156.434  0.00  0.00     0.255 C 
HETATM    9  N   UNK N   1     167.112 156.842 157.037  0.00  0.00    -0.336 N 
HETATM   10  C   UNK N   1     165.779 156.864 156.454  0.00  0.00     0.147 C 
HETATM   11  C   UNK N   1     167.274 157.704 158.209  0.00  0.00     0.137 C 
HETATM   12  C   UNK N   1     165.363 158.296 156.042  0.00  0.00     0.148 C 
HETATM   13  N   UNK N   1     166.152 159.322 156.728  0.00  0.00    -0.357 N 
HETATM   14  C   UNK N   1     166.190 160.629 156.427  0.00  0.00     0.091 A 
HETATM   15  C   UNK N   1     167.040 159.095 157.704  0.00  0.00     0.034 A 
HETATM   16  C   UNK N   1     167.139 161.249 157.230  0.00  0.00     0.019 A 
HETATM   17  C   UNK N   1     167.693 160.264 158.039  0.00  0.00     0.028 A 
HETATM   18  O   UNK N   1     169.272 156.214 156.947  0.00  0.00    -0.267 OA
BRANCH  11  19
HETATM   19  C   UNK N   1     168.544 157.541 159.060  0.00  0.00     0.027 C 
HETATM   20  C   UNK N   1     168.229 156.998 160.442  0.00  0.00     0.007 C 
ENDBRANCH  11  19
ENDBRANCH   1   8
BRANCH   4  21
HETATM   21  N   UNK N   1     167.957 153.211 151.530  0.00  0.00    -0.244 N 
HETATM   22  N   UNK N   1     168.566 152.048 151.394  0.00  0.00    -0.297 N 
HETATM   23  C   UNK N   1     168.358 151.617 150.135  0.00  0.00     0.024 A 
ATOM     24  HN  UNK N   1     169.100 151.563 152.115  1.00  0.00     0.187 HD
HETATM   25  C   UNK N   1     168.899 150.346 149.590  0.00  0.00     0.070 C 
HETATM   26  C   UNK N   1     167.585 152.527 149.439  0.00  0.00     0.052 A 
HETATM   27  C   UNK N   1     167.349 153.527 150.359  0.00  0.00     0.034 A 
HETATM   28  C   UNK N   1     166.536 154.747 150.086  0.00  0.00     0.070 C 
ENDBRANCH   4  21
TORSDOF 3
ENDMDL
MODEL 3
REMARK VINA RESULT:      -6.2      2.721      8.446
REMARK  3 active torsions:
REMARK  status: ('A' for Active; 'I' for Inactive)
REMARK    1  A    between atoms: C_3  and  C_2 
REMARK       I    between atoms: N_11  and  C_12 
REMARK    2  A    between atoms: C_12  and  C_14 
REMARK    3  A    between atoms: C_17  and  N_18 
ROOT
HETATM    1  C   UNK N   1     165.699 154.047 156.275  0.00  0.00     0.047 A 
HETATM    2  C   UNK N   1     164.453 154.157 155.646  0.00  0.00     0.022 A 
HETATM    3  C   UNK N   1     163.392 154.789 156.280  0.00  0.00     0.051 A 
HETATM    4  C   UNK N   1     163.564 155.317 157.560  0.00  0.00     0.127 A 
HETATM    5  N   UNK N   1     164.776 155.191 158.176  0.00  0.00    -0.350 N 
ATOM      6  HN  UNK N   1     164.893 155.561 159.119  1.00  0.00     0.166 HD
HETATM    7  C   UNK N   1     165.832 154.585 157.565  0.00  0.00     0.106 A 
ENDROOT
BRANCH   1   8
HETATM    8  C   UNK N   1     166.826 153.435 155.495  0.00  0.00     0.255 C 
HETATM    9  N   UNK N   1     167.651 154.147 154.644  0.00  0.00    -0.336 N 
HETATM   10  C   UNK N   1     167.516 155.585 154.465  0.00  0.00     0.147 C 
HETATM   11  C   UNK N   1     168.610 153.511 153.739  0.00  0.00     0.137 C 
HETATM   12  C   UNK N   1     167.099 155.939 153.017  0.00  0.00     0.148 C 
HETATM   13  N   UNK N   1     167.386 154.854 152.075  0.00  0.00    -0.357 N 
HETATM   14  C   UNK N   1     166.945 154.762 150.811  0.00  0.00     0.091 A 
HETATM   15  C   UNK N   1     168.054 153.731 152.366  0.00  0.00     0.034 A 
HETATM   16  C   UNK N   1     167.337 153.537 150.286  0.00  0.00     0.019 A 
HETATM   17  C   UNK N   1     168.036 152.871 151.286  0.00  0.00     0.028 A 
HETATM   18  O   UNK N   1     166.958 152.224 155.588  0.00  0.00    -0.267 OA
BRANCH  11  19
HETATM   19  C   UNK N   1     169.033 152.063 154.031  0.00  0.00     0.027 C 
HETATM   20  C   UNK N   1     170.483 151.814 153.655  0.00  0.00     0.007 C 
ENDBRANCH  11  19
ENDBRANCH   1   8
BRANCH   4  21
HETATM   21  N   UNK N   1     162.482 155.986 158.236  0.00  0.00    -0.244 N 
HETATM   22  N   UNK N   1     161.687 155.375 159.095  0.00  0.00    -0.297 N 
HETATM   23  C   UNK N   1     160.786 156.273 159.536  0.00  0.00     0.024 A 
ATOM     24  HN  UNK N   1     161.747 154.397 159.376  1.00  0.00     0.187 HD
HETATM   25  C   UNK N   1     159.708 155.963 160.509  0.00  0.00     0.070 C 
HETATM   26  C   UNK N   1     161.009 157.504 158.947  0.00  0.00     0.052 A 
HETATM   27  C   UNK N   1     162.096 157.281 158.127  0.00  0.00     0.034 A 
HETATM   28  C   UNK N   1     162.735 158.326 157.276  0.00  0.00     0.070 C 
ENDBRANCH   4  21
TORSDOF 3
ENDMDL
MODEL 4
REMARK VINA RESULT:      -6.1     13.112     16.302
REMARK  3 active torsions:
REMARK  status: ('A' for Active; 'I' for Inactive)
REMARK    1  A    between atoms: C_3  and  C_2 
REMARK       I    between atoms: N_11  and  C_12 
REMARK    2  A    between atoms: C_12  and  C_14 
REMARK    3  A    between atoms: C_17  and  N_18 
ROOT
HETATM    1  C   UNK N   1     157.977 145.696 159.533  0.00  0.00     0.047 A 
HETATM    2  C   UNK N   1     159.214 145.310 160.063  0.00  0.00     0.022 A 
HETATM    3  C   UNK N   1     159.373 145.127 161.431  0.00  0.00     0.051 A 
HETATM    4  C   UNK N   1     158.292 145.334 162.289  0.00  0.00     0.127 A 
HETATM    5  N   UNK N   1     157.093 145.727 161.768  0.00  0.00    -0.350 N 
ATOM      6  HN  UNK N   1     156.310 145.896 162.399  1.00  0.00     0.166 HD
HETATM    7  C   UNK N   1     156.915 145.901 160.428  0.00  0.00     0.106 A 
ENDROOT
BRANCH   1   8
HETATM    8  C   UNK N   1     157.852 145.786 158.041  0.00  0.00     0.255 C 
HETATM    9  N   UNK N   1     157.763 146.977 157.344  0.00  0.00    -0.336 N 
HETATM   10  C   UNK N   1     157.826 148.267 158.014  0.00  0.00     0.147 C 
HETATM   11  C   UNK N   1     157.439 147.050 155.918  0.00  0.00     0.137 C 
HETATM   12  C   UNK N   1     156.495 149.044 157.875  0.00  0.00     0.148 C 
HETATM   13  N   UNK N   1     155.679 148.555 156.761  0.00  0.00    -0.357 N 
HETATM   14  C   UNK N   1     154.395 148.861 156.521  0.00  0.00     0.091 A 
HETATM   15  C   UNK N   1     156.064 147.641 155.861  0.00  0.00     0.034 A 
HETATM   16  C   UNK N   1     153.948 148.111 155.441  0.00  0.00     0.019 A 
HETATM   17  C   UNK N   1     155.012 147.319 155.027  0.00  0.00     0.028 A 
HETATM   18  O   UNK N   1     157.762 144.727 157.436  0.00  0.00    -0.267 OA
BRANCH  11  19
HETATM   19  C   UNK N   1     157.624 145.784 155.066  0.00  0.00     0.027 C 
HETATM   20  C   UNK N   1     158.972 145.769 154.367  0.00  0.00     0.007 C 
ENDBRANCH  11  19
ENDBRANCH   1   8
BRANCH   4  21
HETATM   21  N   UNK N   1     158.429 145.140 163.710  0.00  0.00    -0.244 N 
HETATM   22  N   UNK N   1     158.869 146.083 164.522  0.00  0.00    -0.297 N 
HETATM   23  C   UNK N   1     158.882 145.581 165.771  0.00  0.00     0.024 A 
ATOM     24  HN  UNK N   1     159.149 147.026 164.250  1.00  0.00     0.187 HD
HETATM   25  C   UNK N   1     159.331 146.336 166.968  0.00  0.00     0.070 C 
HETATM   26  C   UNK N   1     158.431 144.274 165.766  0.00  0.00     0.052 A 
HETATM   27  C   UNK N   1     158.152 144.030 164.437  0.00  0.00     0.034 A 
HETATM   28  C   UNK N   1     157.616 142.740 163.914  0.00  0.00     0.070 C 
ENDBRANCH   4  21
TORSDOF 3
ENDMDL
MODEL 5
REMARK VINA RESULT:      -6.0      2.151      2.773
REMARK  3 active torsions:
REMARK  status: ('A' for Active; 'I' for Inactive)
REMARK    1  A    between atoms: C_3  and  C_2 
REMARK       I    between atoms: N_11  and  C_12 
REMARK    2  A    between atoms: C_12  and  C_14 
REMARK    3  A    between atoms: C_17  and  N_18 
ROOT
HETATM    1  C   UNK N   1     167.147 156.983 155.219  0.00  0.00     0.047 A 
HETATM    2  C   UNK N   1     168.023 157.278 154.168  0.00  0.00     0.022 A 
HETATM    3  C   UNK N   1     168.053 156.486 153.027  0.00  0.00     0.051 A 
HETATM    4  C   UNK N   1     167.205 155.382 152.926  0.00  0.00     0.127 A 
HETATM    5  N   UNK N   1     166.365 155.090 153.962  0.00  0.00    -0.350 N 
ATOM      6  HN  UNK N   1     165.761 154.271 153.893  1.00  0.00     0.166 HD
HETATM    7  C   UNK N   1     166.314 155.861 155.084  0.00  0.00     0.106 A 
ENDROOT
BRANCH   1   8
HETATM    8  C   UNK N   1     167.102 157.933 156.380  0.00  0.00     0.255 C 
HETATM    9  N   UNK N   1     167.799 157.742 157.560  0.00  0.00    -0.336 N 
HETATM   10  C   UNK N   1     168.682 156.603 157.757  0.00  0.00     0.147 C 
HETATM   11  C   UNK N   1     167.592 158.563 158.755  0.00  0.00     0.137 C 
HETATM   12  C   UNK N   1     168.166 155.672 158.879  0.00  0.00     0.148 C 
HETATM   13  N   UNK N   1     167.221 156.349 159.772  0.00  0.00    -0.357 N 
HETATM   14  C   UNK N   1     166.436 155.765 160.690  0.00  0.00     0.091 A 
HETATM   15  C   UNK N   1     166.922 157.654 159.738  0.00  0.00     0.034 A 
HETATM   16  C   UNK N   1     165.606 156.727 161.250  0.00  0.00     0.019 A 
HETATM   17  C   UNK N   1     165.907 157.935 160.631  0.00  0.00     0.028 A 
HETATM   18  O   UNK N   1     166.348 158.888 156.274  0.00  0.00    -0.267 OA
BRANCH  11  19
HETATM   19  C   UNK N   1     166.914 159.931 158.587  0.00  0.00     0.027 C 
HETATM   20  C   UNK N   1     167.930 161.054 158.485  0.00  0.00     0.007 C 
ENDBRANCH  11  19
ENDBRANCH   1   8
BRANCH   4  21
HETATM   21  N   UNK N   1     167.210 154.552 151.749  0.00  0.00    -0.244 N 
HETATM   22  N   UNK N   1     166.511 154.840 150.667  0.00  0.00    -0.297 N 
HETATM   23  C   UNK N   1     166.729 153.867 149.762  0.00  0.00     0.024 A 
ATOM     24  HN  UNK N   1     165.912 155.656 150.539  1.00  0.00     0.187 HD
HETATM   25  C   UNK N   1     166.105 153.827 148.415  0.00  0.00     0.070 C 
HETATM   26  C   UNK N   1     167.602 152.925 150.273  0.00  0.00     0.052 A 
HETATM   27  C   UNK N   1     167.885 153.395 151.539  0.00  0.00     0.034 A 
HETATM   28  C   UNK N   1     168.807 152.722 152.499  0.00  0.00     0.070 C 
ENDBRANCH   4  21
TORSDOF 3
ENDMDL
MODEL 6
REMARK VINA RESULT:      -6.0      2.648      3.188
REMARK  3 active torsions:
REMARK  status: ('A' for Active; 'I' for Inactive)
REMARK    1  A    between atoms: C_3  and  C_2 
REMARK       I    between atoms: N_11  and  C_12 
REMARK    2  A    between atoms: C_12  and  C_14 
REMARK    3  A    between atoms: C_17  and  N_18 
ROOT
HETATM    1  C   UNK N   1     167.972 155.852 155.321  0.00  0.00     0.047 A 
HETATM    2  C   UNK N   1     167.007 154.837 155.293  0.00  0.00     0.022 A 
HETATM    3  C   UNK N   1     167.306 153.589 154.763  0.00  0.00     0.051 A 
HETATM    4  C   UNK N   1     168.578 153.341 154.247  0.00  0.00     0.127 A 
HETATM    5  N   UNK N   1     169.510 154.339 154.260  0.00  0.00    -0.350 N 
ATOM      6  HN  UNK N   1     170.433 154.161 153.865  1.00  0.00     0.166 HD
HETATM    7  C   UNK N   1     169.238 155.567 154.787  0.00  0.00     0.106 A 
ENDROOT
BRANCH   1   8
HETATM    8  C   UNK N   1     167.610 157.144 155.991  0.00  0.00     0.255 C 
HETATM    9  N   UNK N   1     167.892 157.432 157.314  0.00  0.00    -0.336 N 
HETATM   10  C   UNK N   1     168.616 156.502 158.168  0.00  0.00     0.147 C 
HETATM   11  C   UNK N   1     167.360 158.605 158.011  0.00  0.00     0.137 C 
HETATM   12  C   UNK N   1     167.730 155.992 159.330  0.00  0.00     0.148 C 
HETATM   13  N   UNK N   1     166.586 156.872 159.584  0.00  0.00    -0.357 N 
HETATM   14  C   UNK N   1     165.527 156.595 160.359  0.00  0.00     0.091 A 
HETATM   15  C   UNK N   1     166.373 158.056 158.996  0.00  0.00     0.034 A 
HETATM   16  C   UNK N   1     164.608 157.631 160.253  0.00  0.00     0.019 A 
HETATM   17  C   UNK N   1     165.144 158.561 159.369  0.00  0.00     0.028 A 
HETATM   18  O   UNK N   1     166.972 157.945 155.324  0.00  0.00    -0.267 OA
BRANCH  11  19
HETATM   19  C   UNK N   1     166.832 159.774 157.165  0.00  0.00     0.027 C 
HETATM   20  C   UNK N   1     167.488 161.088 157.551  0.00  0.00     0.007 C 
ENDBRANCH  11  19
ENDBRANCH   1   8
BRANCH   4  21
HETATM   21  N   UNK N   1     168.916 152.052 153.700  0.00  0.00    -0.244 N 
HETATM   22  N   UNK N   1     168.829 151.774 152.413  0.00  0.00    -0.297 N 
HETATM   23  C   UNK N   1     169.208 150.494 152.239  0.00  0.00     0.024 A 
ATOM     24  HN  UNK N   1     168.528 152.417 151.680  1.00  0.00     0.187 HD
HETATM   25  C   UNK N   1     169.231 149.803 150.924  0.00  0.00     0.070 C 
HETATM   26  C   UNK N   1     169.557 149.928 153.451  0.00  0.00     0.052 A 
HETATM   27  C   UNK N   1     169.358 150.950 154.357  0.00  0.00     0.034 A 
HETATM   28  C   UNK N   1     169.614 150.836 155.822  0.00  0.00     0.070 C 
ENDBRANCH   4  21
TORSDOF 3
ENDMDL
MODEL 7
REMARK VINA RESULT:      -5.9      3.453      8.485
REMARK  3 active torsions:
REMARK  status: ('A' for Active; 'I' for Inactive)
REMARK    1  A    between atoms: C_3  and  C_2 
REMARK       I    between atoms: N_11  and  C_12 
REMARK    2  A    between atoms: C_12  and  C_14 
REMARK    3  A    between atoms: C_17  and  N_18 
ROOT
HETATM    1  C   UNK N   1     163.041 155.852 155.518  0.00  0.00     0.047 A 
HETATM    2  C   UNK N   1     162.813 157.129 156.046  0.00  0.00     0.022 A 
HETATM    3  C   UNK N   1     161.667 157.397 156.782  0.00  0.00     0.051 A 
HETATM    4  C   UNK N   1     160.728 156.387 156.996  0.00  0.00     0.127 A 
HETATM    5  N   UNK N   1     160.947 155.149 156.465  0.00  0.00    -0.350 N 
ATOM      6  HN  UNK N   1     160.250 154.418 156.607  1.00  0.00     0.166 HD
HETATM    7  C   UNK N   1     162.071 154.864 155.749  0.00  0.00     0.106 A 
ENDROOT
BRANCH   1   8
HETATM    8  C   UNK N   1     164.343 155.608 154.812  0.00  0.00     0.255 C 
HETATM    9  N   UNK N   1     165.343 154.787 155.300  0.00  0.00    -0.336 N 
HETATM   10  C   UNK N   1     165.192 154.045 156.542  0.00  0.00     0.147 C 
HETATM   11  C   UNK N   1     166.681 154.715 154.710  0.00  0.00     0.137 C 
HETATM   12  C   UNK N   1     166.202 154.521 157.614  0.00  0.00     0.148 C 
HETATM   13  N   UNK N   1     167.340 155.234 157.027  0.00  0.00    -0.357 N 
HETATM   14  C   UNK N   1     168.255 155.955 157.692  0.00  0.00     0.091 A 
HETATM   15  C   UNK N   1     167.584 155.358 155.716  0.00  0.00     0.034 A 
HETATM   16  C   UNK N   1     169.101 156.565 156.775  0.00  0.00     0.019 A 
HETATM   17  C   UNK N   1     168.664 156.194 155.509  0.00  0.00     0.028 A 
HETATM   18  O   UNK N   1     164.529 156.235 153.780  0.00  0.00    -0.267 OA
BRANCH  11  19
HETATM   19  C   UNK N   1     166.868 155.222 153.271  0.00  0.00     0.027 C 
HETATM   20  C   UNK N   1     167.716 154.271 152.446  0.00  0.00     0.007 C 
ENDBRANCH  11  19
ENDBRANCH   1   8
BRANCH   4  21
HETATM   21  N   UNK N   1     159.536 156.637 157.766  0.00  0.00    -0.244 N 
HETATM   22  N   UNK N   1     158.367 156.899 157.211  0.00  0.00    -0.297 N 
HETATM   23  C   UNK N   1     157.473 157.088 158.199  0.00  0.00     0.024 A 
ATOM     24  HN  UNK N   1     158.177 156.948 156.210  1.00  0.00     0.187 HD
HETATM   25  C   UNK N   1     156.042 157.420 157.976  0.00  0.00     0.070 C 
HETATM   26  C   UNK N   1     158.081 156.937 159.431  0.00  0.00     0.052 A 
HETATM   27  C   UNK N   1     159.394 156.651 159.114  0.00  0.00     0.034 A 
HETATM   28  C   UNK N   1     160.463 156.387 160.120  0.00  0.00     0.070 C 
ENDBRANCH   4  21
TORSDOF 3
ENDMDL
MODEL 8
REMARK VINA RESULT:      -5.7      4.235      8.778
REMARK  3 active torsions:
REMARK  status: ('A' for Active; 'I' for Inactive)
REMARK    1  A    between atoms: C_3  and  C_2 
REMARK       I    between atoms: N_11  and  C_12 
REMARK    2  A    between atoms: C_12  and  C_14 
REMARK    3  A    between atoms: C_17  and  N_18 
ROOT
HETATM    1  C   UNK N   1     167.373 156.885 158.031  0.00  0.00     0.047 A 
HETATM    2  C   UNK N   1     166.594 157.397 159.076  0.00  0.00     0.022 A 
HETATM    3  C   UNK N   1     167.058 157.371 160.385  0.00  0.00     0.051 A 
HETATM    4  C   UNK N   1     168.310 156.825 160.666  0.00  0.00     0.127 A 
HETATM    5  N   UNK N   1     169.058 156.311 159.646  0.00  0.00    -0.350 N 
ATOM      6  HN  UNK N   1     169.965 155.895 159.857  1.00  0.00     0.166 HD
HETATM    7  C   UNK N   1     168.624 156.338 158.354  0.00  0.00     0.106 A 
ENDROOT
BRANCH   1   8
HETATM    8  C   UNK N   1     166.851 157.030 156.632  0.00  0.00     0.255 C 
HETATM    9  N   UNK N   1     166.199 156.023 155.944  0.00  0.00    -0.336 N 
HETATM   10  C   UNK N   1     165.925 154.728 156.550  0.00  0.00     0.147 C 
HETATM   11  C   UNK N   1     165.875 156.105 154.518  0.00  0.00     0.137 C 
HETATM   12  C   UNK N   1     166.690 153.592 155.831  0.00  0.00     0.148 C 
HETATM   13  N   UNK N   1     167.114 153.975 154.481  0.00  0.00    -0.357 N 
HETATM   14  C   UNK N   1     167.977 153.308 153.700  0.00  0.00     0.091 A 
HETATM   15  C   UNK N   1     166.780 155.111 153.857  0.00  0.00     0.034 A 
HETATM   16  C   UNK N   1     168.205 154.048 152.548  0.00  0.00     0.019 A 
HETATM   17  C   UNK N   1     167.449 155.210 152.653  0.00  0.00     0.028 A 
HETATM   18  O   UNK N   1     167.085 158.089 156.069  0.00  0.00    -0.267 OA
BRANCH  11  19
HETATM   19  C   UNK N   1     165.859 157.492 153.856  0.00  0.00     0.027 C 
HETATM   20  C   UNK N   1     164.585 157.722 153.064  0.00  0.00     0.007 C 
ENDBRANCH  11  19
ENDBRANCH   1   8
BRANCH   4  21
HETATM   21  N   UNK N   1     168.818 156.795 162.014  0.00  0.00    -0.244 N 
HETATM   22  N   UNK N   1     169.629 157.719 162.494  0.00  0.00    -0.297 N 
HETATM   23  C   UNK N   1     169.918 157.395 163.769  0.00  0.00     0.024 A 
ATOM     24  HN  UNK N   1     169.974 158.535 161.989  1.00  0.00     0.187 HD
HETATM   25  C   UNK N   1     170.816 158.186 164.647  0.00  0.00     0.070 C 
HETATM   26  C   UNK N   1     169.268 156.228 164.125  0.00  0.00     0.052 A 
HETATM   27  C   UNK N   1     168.578 155.876 162.982  0.00  0.00     0.034 A 
HETATM   28  C   UNK N   1     167.701 154.676 162.865  0.00  0.00     0.070 C 
ENDBRANCH   4  21
TORSDOF 3
ENDMDL
MODEL 9
REMARK VINA RESULT:      -5.6     13.342     16.143
REMARK  3 active torsions:
REMARK  status: ('A' for Active; 'I' for Inactive)
REMARK    1  A    between atoms: C_3  and  C_2 
REMARK       I    between atoms: N_11  and  C_12 
REMARK    2  A    between atoms: C_12  and  C_14 
REMARK    3  A    between atoms: C_17  and  N_18 
ROOT
HETATM    1  C   UNK N   1     157.939 145.422 159.847  0.00  0.00     0.047 A 
HETATM    2  C   UNK N   1     158.886 144.610 160.483  0.00  0.00     0.022 A 
HETATM    3  C   UNK N   1     159.645 145.099 161.538  0.00  0.00     0.051 A 
HETATM    4  C   UNK N   1     159.468 146.414 161.969  0.00  0.00     0.127 A 
HETATM    5  N   UNK N   1     158.555 147.207 161.334  0.00  0.00    -0.350 N 
ATOM      6  HN  UNK N   1     158.441 148.174 161.638  1.00  0.00     0.166 HD
HETATM    7  C   UNK N   1     157.794 146.741 160.304  0.00  0.00     0.106 A 
ENDROOT
BRANCH   1   8
HETATM    8  C   UNK N   1     157.091 144.801 158.777  0.00  0.00     0.255 C 
HETATM    9  N   UNK N   1     157.176 145.131 157.436  0.00  0.00    -0.336 N 
HETATM   10  C   UNK N   1     158.145 146.097 156.942  0.00  0.00     0.147 C 
HETATM   11  C   UNK N   1     156.212 144.672 156.434  0.00  0.00     0.137 C 
HETATM   12  C   UNK N   1     157.449 147.349 156.354  0.00  0.00     0.148 C 
HETATM   13  N   UNK N   1     156.049 147.092 156.004  0.00  0.00    -0.357 N 
HETATM   14  C   UNK N   1     155.127 148.015 155.690  0.00  0.00     0.091 A 
HETATM   15  C   UNK N   1     155.446 145.898 156.041  0.00  0.00     0.034 A 
HETATM   16  C   UNK N   1     153.898 147.388 155.533  0.00  0.00     0.019 A 
HETATM   17  C   UNK N   1     154.099 146.033 155.771  0.00  0.00     0.028 A 
HETATM   18  O   UNK N   1     156.239 144.007 159.148  0.00  0.00    -0.267 OA
BRANCH  11  19
HETATM   19  C   UNK N   1     155.336 143.455 156.774  0.00  0.00     0.027 C 
HETATM   20  C   UNK N   1     155.761 142.223 155.996  0.00  0.00     0.007 C 
ENDBRANCH  11  19
ENDBRANCH   1   8
BRANCH   4  21
HETATM   21  N   UNK N   1     160.235 146.942 163.068  0.00  0.00    -0.244 N 
HETATM   22  N   UNK N   1     159.749 147.058 164.290  0.00  0.00    -0.297 N 
HETATM   23  C   UNK N   1     160.712 147.586 165.070  0.00  0.00     0.024 A 
ATOM     24  HN  UNK N   1     158.811 146.792 164.590  1.00  0.00     0.187 HD
HETATM   25  C   UNK N   1     160.544 147.884 166.515  0.00  0.00     0.070 C 
HETATM   26  C   UNK N   1     161.857 147.814 164.329  0.00  0.00     0.052 A 
HETATM   27  C   UNK N   1     161.515 147.391 163.061  0.00  0.00     0.034 A 
HETATM   28  C   UNK N   1     162.435 147.421 161.888  0.00  0.00     0.070 C 
ENDBRANCH   4  21
TORSDOF 3
ENDMDL
