MODEL 1
REMARK VINA RESULT:      -5.7      0.000      0.000
REMARK  7 active torsions:
REMARK  status: ('A' for Active; 'I' for Inactive)
REMARK    1  A    between atoms: O_2  and  C_3 
REMARK    2  A    between atoms: C_5  and  C_3 
REMARK    3  A    between atoms: C_7  and  C_8 
REMARK       I    between atoms: N_15  and  C_16 
REMARK    4  A    between atoms: C_16  and  C_18 
REMARK    5  A    between atoms: C_18  and  S_19 
REMARK    6  A    between atoms: S_19  and  C_20 
REMARK    7  A    between atoms: C_20  and  C_21 
ROOT
HETATM    1  C   UNK N   1     167.247 155.906 154.263  0.00  0.00     0.104 C 
HETATM    2  C   UNK N   1     167.500 157.234 154.980  0.00  0.00     0.027 C 
HETATM    3  C   UNK N   1     166.549 157.440 156.162  0.00  0.00     0.037 C 
HETATM    4  C   UNK N   1     166.653 156.245 157.121  0.00  0.00     0.135 C 
HETATM    5  N   UNK N   1     166.488 155.009 156.386  0.00  0.00    -0.350 N 
HETATM    6  C   UNK N   1     165.534 154.097 156.729  0.00  0.00     0.229 C 
HETATM    7  O   UNK N   1     165.431 153.055 156.098  0.00  0.00    -0.273 OA
HETATM    8  C   UNK N   1     167.371 154.759 155.265  0.00  0.00     0.140 C 
ENDROOT
BRANCH   6   9
HETATM    9  C   UNK N   1     164.604 154.363 157.888  0.00  0.00     0.177 C 
BRANCH   9  10
HETATM   10  S   UNK N   1     163.163 155.375 157.414  0.00  0.00    -0.154 SA
BRANCH  10  11
HETATM   11  C   UNK N   1     163.201 156.332 158.959  0.00  0.00     0.131 C 
BRANCH  11  12
HETATM   12  C   UNK N   1     163.214 157.786 158.643  0.00  0.00     0.018 A 
HETATM   13  C   UNK N   1     163.996 158.672 159.393  0.00  0.00     0.026 A 
HETATM   14  C   UNK N   1     164.001 160.028 159.058  0.00  0.00     0.003 A 
HETATM   15  C   UNK N   1     163.237 160.478 157.981  0.00  0.00     0.017 A 
HETATM   16  C   UNK N   1     162.470 159.563 157.256  0.00  0.00     0.088 A 
HETATM   17  N   UNK N   1     162.472 158.247 157.601  0.00  0.00    -0.369 N 
ATOM     18  HN  UNK N   1     161.902 157.592 157.065  1.00  0.00     0.165 HD
ENDBRANCH  11  12
ENDBRANCH  10  11
ENDBRANCH   9  10
ENDBRANCH   6   9
BRANCH   3  19
HETATM   19  C   UNK N   1     166.890 158.758 156.810  0.00  0.00    -0.052 A 
HETATM   20  C   UNK N   1     167.655 158.763 157.986  0.00  0.00     0.007 A 
HETATM   21  C   UNK N   1     167.952 159.966 158.633  0.00  0.00     0.001 A 
HETATM   22  C   UNK N   1     167.483 161.174 158.112  0.00  0.00     0.000 A 
HETATM   23  C   UNK N   1     166.725 161.181 156.939  0.00  0.00     0.001 A 
HETATM   24  C   UNK N   1     166.428 159.979 156.290  0.00  0.00     0.007 A 
ENDBRANCH   3  19
BRANCH   1  25
HETATM   25  C   UNK N   1     168.210 155.699 153.127  0.00  0.00     0.264 C 
HETATM   26  O   UNK N   1     169.401 155.953 153.269  0.00  0.00    -0.265 OA
BRANCH  25  27
HETATM   27  O   UNK N   1     167.746 155.239 151.940  0.00  0.00    -0.326 OA
HETATM   28  C   UNK N   1     167.723 153.899 151.631  0.00  0.00     0.213 C 
ENDBRANCH  25  27
ENDBRANCH   1  25
TORSDOF 7
ENDMDL
MODEL 2
REMARK VINA RESULT:      -5.5      1.947      2.736
REMARK  7 active torsions:
REMARK  status: ('A' for Active; 'I' for Inactive)
REMARK    1  A    between atoms: O_2  and  C_3 
REMARK    2  A    between atoms: C_5  and  C_3 
REMARK    3  A    between atoms: C_7  and  C_8 
REMARK       I    between atoms: N_15  and  C_16 
REMARK    4  A    between atoms: C_16  and  C_18 
REMARK    5  A    between atoms: C_18  and  S_19 
REMARK    6  A    between atoms: S_19  and  C_20 
REMARK    7  A    between atoms: C_20  and  C_21 
ROOT
HETATM    1  C   UNK N   1     167.523 155.657 154.593  0.00  0.00     0.104 C 
HETATM    2  C   UNK N   1     167.807 156.969 155.326  0.00  0.00     0.027 C 
HETATM    3  C   UNK N   1     166.773 157.255 156.418  0.00  0.00     0.037 C 
HETATM    4  C   UNK N   1     166.703 156.064 157.385  0.00  0.00     0.135 C 
HETATM    5  N   UNK N   1     166.513 154.837 156.641  0.00  0.00    -0.350 N 
HETATM    6  C   UNK N   1     165.468 154.000 156.900  0.00  0.00     0.229 C 
HETATM    7  O   UNK N   1     165.345 152.963 156.264  0.00  0.00    -0.273 OA
HETATM    8  C   UNK N   1     167.472 154.513 155.605  0.00  0.00     0.140 C 
ENDROOT
BRANCH   6   9
HETATM    9  C   UNK N   1     164.460 154.344 157.970  0.00  0.00     0.177 C 
BRANCH   9  10
HETATM   10  S   UNK N   1     163.440 155.791 157.536  0.00  0.00    -0.154 SA
BRANCH  10  11
HETATM   11  C   UNK N   1     163.019 155.130 155.897  0.00  0.00     0.131 C 
BRANCH  11  12
HETATM   12  C   UNK N   1     163.548 156.038 154.843  0.00  0.00     0.018 A 
HETATM   13  C   UNK N   1     163.698 157.407 155.092  0.00  0.00     0.026 A 
HETATM   14  C   UNK N   1     164.216 158.230 154.089  0.00  0.00     0.003 A 
HETATM   15  C   UNK N   1     164.581 157.678 152.860  0.00  0.00     0.017 A 
HETATM   16  C   UNK N   1     164.415 156.307 152.650  0.00  0.00     0.088 A 
HETATM   17  N   UNK N   1     163.903 155.522 153.636  0.00  0.00    -0.369 N 
ATOM     18  HN  UNK N   1     163.783 154.523 153.466  1.00  0.00     0.165 HD
ENDBRANCH  11  12
ENDBRANCH  10  11
ENDBRANCH   9  10
ENDBRANCH   6   9
BRANCH   3  19
HETATM   19  C   UNK N   1     167.150 158.551 157.091  0.00  0.00    -0.052 A 
HETATM   20  C   UNK N   1     166.562 159.745 156.650  0.00  0.00     0.007 A 
HETATM   21  C   UNK N   1     166.921 160.967 157.226  0.00  0.00     0.001 A 
HETATM   22  C   UNK N   1     167.876 161.004 158.245  0.00  0.00     0.000 A 
HETATM   23  C   UNK N   1     168.464 159.821 158.695  0.00  0.00     0.001 A 
HETATM   24  C   UNK N   1     168.105 158.597 158.121  0.00  0.00     0.007 A 
ENDBRANCH   3  19
BRANCH   1  25
HETATM   25  C   UNK N   1     168.565 155.370 153.548  0.00  0.00     0.264 C 
HETATM   26  O   UNK N   1     169.457 156.180 153.324  0.00  0.00    -0.265 OA
BRANCH  25  27
HETATM   27  O   UNK N   1     168.502 154.211 152.849  0.00  0.00    -0.326 OA
HETATM   28  C   UNK N   1     167.657 154.047 151.775  0.00  0.00     0.213 C 
ENDBRANCH  25  27
ENDBRANCH   1  25
TORSDOF 7
ENDMDL
MODEL 3
REMARK VINA RESULT:      -5.5      3.292      5.760
REMARK  7 active torsions:
REMARK  status: ('A' for Active; 'I' for Inactive)
REMARK    1  A    between atoms: O_2  and  C_3 
REMARK    2  A    between atoms: C_5  and  C_3 
REMARK    3  A    between atoms: C_7  and  C_8 
REMARK       I    between atoms: N_15  and  C_16 
REMARK    4  A    between atoms: C_16  and  C_18 
REMARK    5  A    between atoms: C_18  and  S_19 
REMARK    6  A    between atoms: S_19  and  C_20 
REMARK    7  A    between atoms: C_20  and  C_21 
ROOT
HETATM    1  C   UNK N   1     165.236 160.876 157.442  0.00  0.00     0.104 C 
HETATM    2  C   UNK N   1     166.086 159.976 156.543  0.00  0.00     0.027 C 
HETATM    3  C   UNK N   1     166.226 158.561 157.111  0.00  0.00     0.037 C 
HETATM    4  C   UNK N   1     164.831 157.967 157.360  0.00  0.00     0.135 C 
HETATM    5  N   UNK N   1     164.037 158.888 158.146  0.00  0.00    -0.350 N 
HETATM    6  C   UNK N   1     163.463 158.508 159.323  0.00  0.00     0.229 C 
HETATM    7  O   UNK N   1     162.784 159.306 159.955  0.00  0.00    -0.273 OA
HETATM    8  C   UNK N   1     163.864 160.236 157.646  0.00  0.00     0.140 C 
ENDROOT
BRANCH   6   9
HETATM    9  C   UNK N   1     163.655 157.108 159.852  0.00  0.00     0.177 C 
BRANCH   9  10
HETATM   10  S   UNK N   1     162.191 156.053 159.595  0.00  0.00    -0.154 SA
BRANCH  10  11
HETATM   11  C   UNK N   1     163.190 154.555 159.345  0.00  0.00     0.131 C 
BRANCH  11  12
HETATM   12  C   UNK N   1     163.768 154.565 157.975  0.00  0.00     0.018 A 
HETATM   13  C   UNK N   1     165.136 154.345 157.776  0.00  0.00     0.026 A 
HETATM   14  C   UNK N   1     165.644 154.342 156.475  0.00  0.00     0.003 A 
HETATM   15  C   UNK N   1     164.785 154.551 155.395  0.00  0.00     0.017 A 
HETATM   16  C   UNK N   1     163.426 154.767 155.634  0.00  0.00     0.088 A 
HETATM   17  N   UNK N   1     162.949 154.773 156.908  0.00  0.00    -0.369 N 
ATOM     18  HN  UNK N   1     161.955 154.937 157.067  1.00  0.00     0.165 HD
ENDBRANCH  11  12
ENDBRANCH  10  11
ENDBRANCH   9  10
ENDBRANCH   6   9
BRANCH   3  19
HETATM   19  C   UNK N   1     167.058 157.752 156.149  0.00  0.00    -0.052 A 
HETATM   20  C   UNK N   1     168.107 156.965 156.648  0.00  0.00     0.007 A 
HETATM   21  C   UNK N   1     168.922 156.236 155.779  0.00  0.00     0.001 A 
HETATM   22  C   UNK N   1     168.698 156.291 154.401  0.00  0.00     0.000 A 
HETATM   23  C   UNK N   1     167.654 157.067 153.893  0.00  0.00     0.001 A 
HETATM   24  C   UNK N   1     166.836 157.796 154.762  0.00  0.00     0.007 A 
ENDBRANCH   3  19
BRANCH   1  25
HETATM   25  C   UNK N   1     165.077 162.252 156.856  0.00  0.00     0.264 C 
HETATM   26  O   UNK N   1     165.436 162.481 155.706  0.00  0.00    -0.265 OA
BRANCH  25  27
HETATM   27  O   UNK N   1     164.542 163.239 157.615  0.00  0.00    -0.326 OA
HETATM   28  C   UNK N   1     164.779 163.334 158.967  0.00  0.00     0.213 C 
ENDBRANCH  25  27
ENDBRANCH   1  25
TORSDOF 7
ENDMDL
MODEL 4
REMARK VINA RESULT:      -5.4      2.900      6.041
REMARK  7 active torsions:
REMARK  status: ('A' for Active; 'I' for Inactive)
REMARK    1  A    between atoms: O_2  and  C_3 
REMARK    2  A    between atoms: C_5  and  C_3 
REMARK    3  A    between atoms: C_7  and  C_8 
REMARK       I    between atoms: N_15  and  C_16 
REMARK    4  A    between atoms: C_16  and  C_18 
REMARK    5  A    between atoms: C_18  and  S_19 
REMARK    6  A    between atoms: S_19  and  C_20 
REMARK    7  A    between atoms: C_20  and  C_21 
ROOT
HETATM    1  C   UNK N   1     165.276 159.990 157.050  0.00  0.00     0.104 C 
HETATM    2  C   UNK N   1     165.941 159.247 155.889  0.00  0.00     0.027 C 
HETATM    3  C   UNK N   1     165.640 157.747 155.917  0.00  0.00     0.037 C 
HETATM    4  C   UNK N   1     164.120 157.528 155.940  0.00  0.00     0.135 C 
HETATM    5  N   UNK N   1     163.525 158.311 157.002  0.00  0.00    -0.350 N 
HETATM    6  C   UNK N   1     162.754 157.735 157.967  0.00  0.00     0.229 C 
HETATM    7  O   UNK N   1     162.253 158.427 158.842  0.00  0.00    -0.273 OA
HETATM    8  C   UNK N   1     163.770 159.738 157.014  0.00  0.00     0.140 C 
ENDROOT
BRANCH   6   9
HETATM    9  C   UNK N   1     162.511 156.245 157.964  0.00  0.00     0.177 C 
BRANCH   9  10
HETATM   10  S   UNK N   1     163.789 155.322 158.880  0.00  0.00    -0.154 SA
BRANCH  10  11
HETATM   11  C   UNK N   1     164.100 154.183 157.498  0.00  0.00     0.131 C 
BRANCH  11  12
HETATM   12  C   UNK N   1     165.546 154.203 157.152  0.00  0.00     0.018 A 
HETATM   13  C   UNK N   1     166.009 153.586 155.984  0.00  0.00     0.026 A 
HETATM   14  C   UNK N   1     167.370 153.640 155.678  0.00  0.00     0.003 A 
HETATM   15  C   UNK N   1     168.247 154.310 156.533  0.00  0.00     0.017 A 
HETATM   16  C   UNK N   1     167.747 154.912 157.689  0.00  0.00     0.088 A 
HETATM   17  N   UNK N   1     166.419 154.845 157.975  0.00  0.00    -0.369 N 
ATOM     18  HN  UNK N   1     166.070 155.285 158.826  1.00  0.00     0.165 HD
ENDBRANCH  11  12
ENDBRANCH  10  11
ENDBRANCH   9  10
ENDBRANCH   6   9
BRANCH   3  19
HETATM   19  C   UNK N   1     166.319 157.112 154.730  0.00  0.00    -0.052 A 
HETATM   20  C   UNK N   1     165.554 156.349 153.834  0.00  0.00     0.007 A 
HETATM   21  C   UNK N   1     166.161 155.714 152.748  0.00  0.00     0.001 A 
HETATM   22  C   UNK N   1     167.539 155.833 152.549  0.00  0.00     0.000 A 
HETATM   23  C   UNK N   1     168.308 156.594 153.432  0.00  0.00     0.001 A 
HETATM   24  C   UNK N   1     167.703 157.231 154.519  0.00  0.00     0.007 A 
ENDBRANCH   3  19
BRANCH   1  25
HETATM   25  C   UNK N   1     165.550 161.467 156.991  0.00  0.00     0.264 C 
HETATM   26  O   UNK N   1     165.721 162.023 155.912  0.00  0.00    -0.265 OA
BRANCH  25  27
HETATM   27  O   UNK N   1     165.618 162.176 158.144  0.00  0.00    -0.326 OA
HETATM   28  C   UNK N   1     166.086 161.628 159.315  0.00  0.00     0.213 C 
ENDBRANCH  25  27
ENDBRANCH   1  25
TORSDOF 7
ENDMDL
MODEL 5
REMARK VINA RESULT:      -5.4      1.772      2.203
REMARK  7 active torsions:
REMARK  status: ('A' for Active; 'I' for Inactive)
REMARK    1  A    between atoms: O_2  and  C_3 
REMARK    2  A    between atoms: C_5  and  C_3 
REMARK    3  A    between atoms: C_7  and  C_8 
REMARK       I    between atoms: N_15  and  C_16 
REMARK    4  A    between atoms: C_16  and  C_18 
REMARK    5  A    between atoms: C_18  and  S_19 
REMARK    6  A    between atoms: S_19  and  C_20 
REMARK    7  A    between atoms: C_20  and  C_21 
ROOT
HETATM    1  C   UNK N   1     167.323 155.935 154.330  0.00  0.00     0.104 C 
HETATM    2  C   UNK N   1     167.536 157.268 155.051  0.00  0.00     0.027 C 
HETATM    3  C   UNK N   1     166.531 157.475 156.187  0.00  0.00     0.037 C 
HETATM    4  C   UNK N   1     166.597 156.284 157.155  0.00  0.00     0.135 C 
HETATM    5  N   UNK N   1     166.471 155.044 156.420  0.00  0.00    -0.350 N 
HETATM    6  C   UNK N   1     165.507 154.130 156.724  0.00  0.00     0.229 C 
HETATM    7  O   UNK N   1     165.437 153.084 156.093  0.00  0.00    -0.273 OA
HETATM    8  C   UNK N   1     167.406 154.794 155.342  0.00  0.00     0.140 C 
ENDROOT
BRANCH   6   9
HETATM    9  C   UNK N   1     164.523 154.396 157.837  0.00  0.00     0.177 C 
BRANCH   9  10
HETATM   10  S   UNK N   1     163.036 155.282 157.264  0.00  0.00    -0.154 SA
BRANCH  10  11
HETATM   11  C   UNK N   1     162.421 155.549 158.953  0.00  0.00     0.131 C 
BRANCH  11  12
HETATM   12  C   UNK N   1     161.012 156.024 158.900  0.00  0.00     0.018 A 
HETATM   13  C   UNK N   1     160.246 156.116 160.068  0.00  0.00     0.026 A 
HETATM   14  C   UNK N   1     158.933 156.584 159.987  0.00  0.00     0.003 A 
HETATM   15  C   UNK N   1     158.406 156.959 158.749  0.00  0.00     0.017 A 
HETATM   16  C   UNK N   1     159.201 156.852 157.607  0.00  0.00     0.088 A 
HETATM   17  N   UNK N   1     160.477 156.388 157.704  0.00  0.00    -0.369 N 
ATOM     18  HN  UNK N   1     161.044 156.311 156.859  1.00  0.00     0.165 HD
ENDBRANCH  11  12
ENDBRANCH  10  11
ENDBRANCH   9  10
ENDBRANCH   6   9
BRANCH   3  19
HETATM   19  C   UNK N   1     166.835 158.798 156.844  0.00  0.00    -0.052 A 
HETATM   20  C   UNK N   1     167.679 158.826 157.964  0.00  0.00     0.007 A 
HETATM   21  C   UNK N   1     167.947 160.031 158.619  0.00  0.00     0.001 A 
HETATM   22  C   UNK N   1     167.370 161.218 158.162  0.00  0.00     0.000 A 
HETATM   23  C   UNK N   1     166.533 161.202 157.044  0.00  0.00     0.001 A 
HETATM   24  C   UNK N   1     166.264 159.998 156.387  0.00  0.00     0.007 A 
ENDBRANCH   3  19
BRANCH   1  25
HETATM   25  C   UNK N   1     168.338 155.727 153.240  0.00  0.00     0.264 C 
HETATM   26  O   UNK N   1     169.533 155.880 153.468  0.00  0.00    -0.265 OA
BRANCH  25  27
HETATM   27  O   UNK N   1     167.917 155.380 152.000  0.00  0.00    -0.326 OA
HETATM   28  C   UNK N   1     167.576 154.088 151.676  0.00  0.00     0.213 C 
ENDBRANCH  25  27
ENDBRANCH   1  25
TORSDOF 7
ENDMDL
MODEL 6
REMARK VINA RESULT:      -5.4      4.318      9.340
REMARK  7 active torsions:
REMARK  status: ('A' for Active; 'I' for Inactive)
REMARK    1  A    between atoms: O_2  and  C_3 
REMARK    2  A    between atoms: C_5  and  C_3 
REMARK    3  A    between atoms: C_7  and  C_8 
REMARK       I    between atoms: N_15  and  C_16 
REMARK    4  A    between atoms: C_16  and  C_18 
REMARK    5  A    between atoms: C_18  and  S_19 
REMARK    6  A    between atoms: S_19  and  C_20 
REMARK    7  A    between atoms: C_20  and  C_21 
ROOT
HETATM    1  C   UNK N   1     167.430 154.623 154.850  0.00  0.00     0.104 C 
HETATM    2  C   UNK N   1     167.188 154.535 153.342  0.00  0.00     0.027 C 
HETATM    3  C   UNK N   1     168.149 153.556 152.661  0.00  0.00     0.037 C 
HETATM    4  C   UNK N   1     168.047 152.181 153.338  0.00  0.00     0.135 C 
HETATM    5  N   UNK N   1     168.201 152.325 154.770  0.00  0.00    -0.350 N 
HETATM    6  C   UNK N   1     169.153 151.632 155.457  0.00  0.00     0.229 C 
HETATM    7  O   UNK N   1     169.247 151.764 156.670  0.00  0.00    -0.273 OA
HETATM    8  C   UNK N   1     167.309 153.230 155.464  0.00  0.00     0.140 C 
ENDROOT
BRANCH   6   9
HETATM    9  C   UNK N   1     170.093 150.700 154.733  0.00  0.00     0.177 C 
BRANCH   9  10
HETATM   10  S   UNK N   1     169.470 148.989 154.662  0.00  0.00    -0.154 SA
BRANCH  10  11
HETATM   11  C   UNK N   1     170.603 148.524 153.318  0.00  0.00     0.131 C 
BRANCH  11  12
HETATM   12  C   UNK N   1     169.893 148.617 152.014  0.00  0.00     0.018 A 
HETATM   13  C   UNK N   1     168.494 148.629 151.963  0.00  0.00     0.026 A 
HETATM   14  C   UNK N   1     167.858 148.737 150.725  0.00  0.00     0.003 A 
HETATM   15  C   UNK N   1     168.622 148.838 149.560  0.00  0.00     0.017 A 
HETATM   16  C   UNK N   1     170.015 148.821 149.652  0.00  0.00     0.088 A 
HETATM   17  N   UNK N   1     170.618 148.710 150.867  0.00  0.00    -0.369 N 
ATOM     18  HN  UNK N   1     171.636 148.694 150.918  1.00  0.00     0.165 HD
ENDBRANCH  11  12
ENDBRANCH  10  11
ENDBRANCH   9  10
ENDBRANCH   6   9
BRANCH   3  19
HETATM   19  C   UNK N   1     167.819 153.525 151.190  0.00  0.00    -0.052 A 
HETATM   20  C   UNK N   1     168.284 152.457 150.409  0.00  0.00     0.007 A 
HETATM   21  C   UNK N   1     168.031 152.421 149.035  0.00  0.00     0.001 A 
HETATM   22  C   UNK N   1     167.312 153.455 148.430  0.00  0.00     0.000 A 
HETATM   23  C   UNK N   1     166.840 154.520 149.199  0.00  0.00     0.001 A 
HETATM   24  C   UNK N   1     167.092 154.557 150.574  0.00  0.00     0.007 A 
ENDBRANCH   3  19
BRANCH   1  25
HETATM   25  C   UNK N   1     166.457 155.561 155.511  0.00  0.00     0.264 C 
HETATM   26  O   UNK N   1     165.266 155.278 155.571  0.00  0.00    -0.265 OA
BRANCH  25  27
HETATM   27  O   UNK N   1     166.910 156.728 156.031  0.00  0.00    -0.326 OA
HETATM   28  C   UNK N   1     166.620 157.946 155.462  0.00  0.00     0.213 C 
ENDBRANCH  25  27
ENDBRANCH   1  25
TORSDOF 7
ENDMDL
MODEL 7
REMARK VINA RESULT:      -5.4      2.150      2.927
REMARK  7 active torsions:
REMARK  status: ('A' for Active; 'I' for Inactive)
REMARK    1  A    between atoms: O_2  and  C_3 
REMARK    2  A    between atoms: C_5  and  C_3 
REMARK    3  A    between atoms: C_7  and  C_8 
REMARK       I    between atoms: N_15  and  C_16 
REMARK    4  A    between atoms: C_16  and  C_18 
REMARK    5  A    between atoms: C_18  and  S_19 
REMARK    6  A    between atoms: S_19  and  C_20 
REMARK    7  A    between atoms: C_20  and  C_21 
ROOT
HETATM    1  C   UNK N   1     167.663 156.482 154.445  0.00  0.00     0.104 C 
HETATM    2  C   UNK N   1     168.173 156.503 155.887  0.00  0.00     0.027 C 
HETATM    3  C   UNK N   1     167.060 156.828 156.887  0.00  0.00     0.037 C 
HETATM    4  C   UNK N   1     165.900 155.838 156.704  0.00  0.00     0.135 C 
HETATM    5  N   UNK N   1     165.505 155.793 155.312  0.00  0.00    -0.350 N 
HETATM    6  C   UNK N   1     164.220 156.037 154.927  0.00  0.00     0.229 C 
HETATM    7  O   UNK N   1     163.916 155.975 153.744  0.00  0.00    -0.273 OA
HETATM    8  C   UNK N   1     166.519 155.478 154.327  0.00  0.00     0.140 C 
ENDROOT
BRANCH   6   9
HETATM    9  C   UNK N   1     163.167 156.380 155.952  0.00  0.00     0.177 C 
BRANCH   9  10
HETATM   10  S   UNK N   1     162.699 158.142 155.917  0.00  0.00    -0.154 SA
BRANCH  10  11
HETATM   11  C   UNK N   1     163.226 158.420 157.634  0.00  0.00     0.131 C 
BRANCH  11  12
HETATM   12  C   UNK N   1     164.478 159.223 157.647  0.00  0.00     0.018 A 
HETATM   13  C   UNK N   1     165.161 159.461 158.845  0.00  0.00     0.026 A 
HETATM   14  C   UNK N   1     166.344 160.202 158.820  0.00  0.00     0.003 A 
HETATM   15  C   UNK N   1     166.832 160.688 157.606  0.00  0.00     0.017 A 
HETATM   16  C   UNK N   1     166.121 160.431 156.431  0.00  0.00     0.088 A 
HETATM   17  N   UNK N   1     164.967 159.712 156.475  0.00  0.00    -0.369 N 
ATOM     18  HN  UNK N   1     164.457 159.536 155.610  1.00  0.00     0.165 HD
ENDBRANCH  11  12
ENDBRANCH  10  11
ENDBRANCH   9  10
ENDBRANCH   6   9
BRANCH   3  19
HETATM   19  C   UNK N   1     167.655 156.804 158.272  0.00  0.00    -0.052 A 
HETATM   20  C   UNK N   1     166.966 156.142 159.299  0.00  0.00     0.007 A 
HETATM   21  C   UNK N   1     167.471 156.137 160.602  0.00  0.00     0.001 A 
HETATM   22  C   UNK N   1     168.667 156.798 160.890  0.00  0.00     0.000 A 
HETATM   23  C   UNK N   1     169.363 157.457 159.874  0.00  0.00     0.001 A 
HETATM   24  C   UNK N   1     168.860 157.461 158.570  0.00  0.00     0.007 A 
ENDBRANCH   3  19
BRANCH   1  25
HETATM   25  C   UNK N   1     168.758 156.127 153.477  0.00  0.00     0.264 C 
HETATM   26  O   UNK N   1     169.577 156.971 153.130  0.00  0.00    -0.265 OA
BRANCH  25  27
HETATM   27  O   UNK N   1     168.824 154.867 152.983  0.00  0.00    -0.326 OA
HETATM   28  C   UNK N   1     169.547 153.874 153.602  0.00  0.00     0.213 C 
ENDBRANCH  25  27
ENDBRANCH   1  25
TORSDOF 7
ENDMDL
MODEL 8
REMARK VINA RESULT:      -5.3      1.221      1.682
REMARK  7 active torsions:
REMARK  status: ('A' for Active; 'I' for Inactive)
REMARK    1  A    between atoms: O_2  and  C_3 
REMARK    2  A    between atoms: C_5  and  C_3 
REMARK    3  A    between atoms: C_7  and  C_8 
REMARK       I    between atoms: N_15  and  C_16 
REMARK    4  A    between atoms: C_16  and  C_18 
REMARK    5  A    between atoms: C_18  and  S_19 
REMARK    6  A    between atoms: S_19  and  C_20 
REMARK    7  A    between atoms: C_20  and  C_21 
ROOT
HETATM    1  C   UNK N   1     167.468 155.605 154.775  0.00  0.00     0.104 C 
HETATM    2  C   UNK N   1     167.791 156.911 155.505  0.00  0.00     0.027 C 
HETATM    3  C   UNK N   1     166.595 157.432 156.307  0.00  0.00     0.037 C 
HETATM    4  C   UNK N   1     166.108 156.342 157.273  0.00  0.00     0.135 C 
HETATM    5  N   UNK N   1     165.893 155.106 156.552  0.00  0.00    -0.350 N 
HETATM    6  C   UNK N   1     164.693 154.460 156.584  0.00  0.00     0.229 C 
HETATM    7  O   UNK N   1     164.548 153.409 155.976  0.00  0.00    -0.273 OA
HETATM    8  C   UNK N   1     166.997 154.563 155.786  0.00  0.00     0.140 C 
ENDROOT
BRANCH   6   9
HETATM    9  C   UNK N   1     163.538 155.033 157.369  0.00  0.00     0.177 C 
BRANCH   9  10
HETATM   10  S   UNK N   1     162.131 155.502 156.309  0.00  0.00    -0.154 SA
BRANCH  10  11
HETATM   11  C   UNK N   1     163.017 156.915 155.586  0.00  0.00     0.131 C 
BRANCH  11  12
HETATM   12  C   UNK N   1     162.529 158.177 156.204  0.00  0.00     0.018 A 
HETATM   13  C   UNK N   1     163.183 158.727 157.313  0.00  0.00     0.026 A 
HETATM   14  C   UNK N   1     162.711 159.923 157.858  0.00  0.00     0.003 A 
HETATM   15  C   UNK N   1     161.605 160.556 157.289  0.00  0.00     0.017 A 
HETATM   16  C   UNK N   1     160.980 159.976 156.183  0.00  0.00     0.088 A 
HETATM   17  N   UNK N   1     161.449 158.807 155.669  0.00  0.00    -0.369 N 
ATOM     18  HN  UNK N   1     160.979 158.393 154.864  1.00  0.00     0.165 HD
ENDBRANCH  11  12
ENDBRANCH  10  11
ENDBRANCH   9  10
ENDBRANCH   6   9
BRANCH   3  19
HETATM   19  C   UNK N   1     167.018 158.702 157.002  0.00  0.00    -0.052 A 
HETATM   20  C   UNK N   1     166.494 159.927 156.564  0.00  0.00     0.007 A 
HETATM   21  C   UNK N   1     166.897 161.124 157.161  0.00  0.00     0.001 A 
HETATM   22  C   UNK N   1     167.832 161.107 158.199  0.00  0.00     0.000 A 
HETATM   23  C   UNK N   1     168.356 159.893 158.646  0.00  0.00     0.001 A 
HETATM   24  C   UNK N   1     167.953 158.694 158.051  0.00  0.00     0.007 A 
ENDBRANCH   3  19
BRANCH   1  25
HETATM   25  C   UNK N   1     168.660 155.085 154.020  0.00  0.00     0.264 C 
HETATM   26  O   UNK N   1     169.744 155.649 154.108  0.00  0.00    -0.265 OA
BRANCH  25  27
HETATM   27  O   UNK N   1     168.520 153.991 153.232  0.00  0.00    -0.326 OA
HETATM   28  C   UNK N   1     167.741 153.999 152.099  0.00  0.00     0.213 C 
ENDBRANCH  25  27
ENDBRANCH   1  25
TORSDOF 7
ENDMDL
MODEL 9
REMARK VINA RESULT:      -5.3      3.024      4.948
REMARK  7 active torsions:
REMARK  status: ('A' for Active; 'I' for Inactive)
REMARK    1  A    between atoms: O_2  and  C_3 
REMARK    2  A    between atoms: C_5  and  C_3 
REMARK    3  A    between atoms: C_7  and  C_8 
REMARK       I    between atoms: N_15  and  C_16 
REMARK    4  A    between atoms: C_16  and  C_18 
REMARK    5  A    between atoms: C_18  and  S_19 
REMARK    6  A    between atoms: S_19  and  C_20 
REMARK    7  A    between atoms: C_20  and  C_21 
ROOT
HETATM    1  C   UNK N   1     163.676 155.539 156.857  0.00  0.00     0.104 C 
HETATM    2  C   UNK N   1     164.789 155.871 155.860  0.00  0.00     0.027 C 
HETATM    3  C   UNK N   1     166.120 156.161 156.559  0.00  0.00     0.037 C 
HETATM    4  C   UNK N   1     166.495 154.976 157.462  0.00  0.00     0.135 C 
HETATM    5  N   UNK N   1     165.385 154.647 158.330  0.00  0.00    -0.350 N 
HETATM    6  C   UNK N   1     165.526 154.611 159.685  0.00  0.00     0.229 C 
HETATM    7  O   UNK N   1     164.572 154.314 160.390  0.00  0.00    -0.273 OA
HETATM    8  C   UNK N   1     164.106 154.353 157.718  0.00  0.00     0.140 C 
ENDROOT
BRANCH   6   9
HETATM    9  C   UNK N   1     166.855 154.932 160.325  0.00  0.00     0.177 C 
BRANCH   9  10
HETATM   10  S   UNK N   1     166.872 156.569 161.126  0.00  0.00    -0.154 SA
BRANCH  10  11
HETATM   11  C   UNK N   1     168.054 157.256 159.928  0.00  0.00     0.131 C 
BRANCH  11  12
HETATM   12  C   UNK N   1     167.539 158.551 159.408  0.00  0.00     0.018 A 
HETATM   13  C   UNK N   1     167.833 158.963 158.103  0.00  0.00     0.026 A 
HETATM   14  C   UNK N   1     167.319 160.175 157.638  0.00  0.00     0.003 A 
HETATM   15  C   UNK N   1     166.516 160.953 158.474  0.00  0.00     0.017 A 
HETATM   16  C   UNK N   1     166.246 160.509 159.770  0.00  0.00     0.088 A 
HETATM   17  N   UNK N   1     166.761 159.328 160.208  0.00  0.00    -0.369 N 
ATOM     18  HN  UNK N   1     166.558 159.019 161.159  1.00  0.00     0.165 HD
ENDBRANCH  11  12
ENDBRANCH  10  11
ENDBRANCH   9  10
ENDBRANCH   6   9
BRANCH   3  19
HETATM   19  C   UNK N   1     167.150 156.455 155.498  0.00  0.00    -0.052 A 
HETATM   20  C   UNK N   1     166.806 157.292 154.426  0.00  0.00     0.007 A 
HETATM   21  C   UNK N   1     167.725 157.550 153.405  0.00  0.00     0.001 A 
HETATM   22  C   UNK N   1     168.995 156.971 153.447  0.00  0.00     0.000 A 
HETATM   23  C   UNK N   1     169.350 156.140 154.512  0.00  0.00     0.001 A 
HETATM   24  C   UNK N   1     168.432 155.882 155.534  0.00  0.00     0.007 A 
ENDBRANCH   3  19
BRANCH   1  25
HETATM   25  C   UNK N   1     162.383 155.222 156.156  0.00  0.00     0.264 C 
HETATM   26  O   UNK N   1     162.334 154.325 155.322  0.00  0.00    -0.265 OA
BRANCH  25  27
HETATM   27  O   UNK N   1     161.276 155.946 156.449  0.00  0.00    -0.326 OA
HETATM   28  C   UNK N   1     161.331 157.105 157.187  0.00  0.00     0.213 C 
ENDBRANCH  25  27
ENDBRANCH   1  25
TORSDOF 7
ENDMDL
