MODEL 1
REMARK VINA RESULT:      -7.5      0.000      0.000
REMARK  5 active torsions:
REMARK  status: ('A' for Active; 'I' for Inactive)
REMARK    1  A    between atoms: C_4  and  C_5 
REMARK       I    between atoms: C_5  and  N_7 
REMARK    2  A    between atoms: N_7  and  C_8 
REMARK    3  A    between atoms: C_9  and  C_8 
REMARK    4  A    between atoms: C_22  and  S_23 
REMARK    5  A    between atoms: S_23  and  N_24 
ROOT
HETATM    1  C   UNK N   1     169.077 152.155 153.745  0.00  0.00     0.275 C 
HETATM    2  O   UNK N   1     168.709 152.216 152.583  0.00  0.00    -0.265 OA
HETATM    3  N   UNK N   1     169.459 153.268 154.408  0.00  0.00    -0.355 N 
HETATM    4  H   UNK N   1     169.773 153.168 155.336  0.00  0.00     0.162 HD
ENDROOT
BRANCH   3   5
HETATM    5  C   UNK N   1     169.433 154.594 153.839  0.00  0.00     0.128 C 
BRANCH   5   6
HETATM    6  C   UNK N   1     169.137 155.700 154.882  0.00  0.00     0.017 A 
HETATM    7  C   UNK N   1     168.480 155.062 156.099  0.00  0.00     0.022 A 
HETATM    8  C   UNK N   1     167.681 156.035 155.247  0.00  0.00    -0.007 A 
HETATM    9  C   UNK N   1     166.468 155.403 154.552  0.00  0.00     0.015 C 
HETATM   10  C   UNK N   1     167.362 157.328 155.936  0.00  0.00    -0.043 A 
HETATM   11  C   UNK N   1     165.631 156.433 153.755  0.00  0.00     0.006 C 
HETATM   12  C   UNK N   1     166.159 157.879 153.819  0.00  0.00     0.039 C 
HETATM   13  C   UNK N   1     166.568 158.233 155.220  0.00  0.00    -0.051 A 
HETATM   14  C   UNK N   1     166.143 159.422 155.818  0.00  0.00     0.007 A 
HETATM   15  C   UNK N   1     166.518 159.711 157.133  0.00  0.00     0.001 A 
HETATM   16  C   UNK N   1     167.315 158.811 157.852  0.00  0.00     0.001 A 
HETATM   17  C   UNK N   1     167.733 157.615 157.258  0.00  0.00     0.008 A 
ENDBRANCH   5   6
ENDBRANCH   3   5
BRANCH   1  18
HETATM   18  C   UNK N   1     169.112 150.867 154.451  0.00  0.00     0.144 A 
HETATM   19  O   UNK N   1     170.089 149.992 154.339  0.00  0.00    -0.308 OA
HETATM   20  C   UNK N   1     169.822 148.962 155.104  0.00  0.00     0.073 A 
HETATM   21  C   UNK N   1     170.702 147.770 155.244  0.00  0.00     0.078 C 
HETATM   22  C   UNK N   1     168.617 149.174 155.741  0.00  0.00     0.106 A 
HETATM   23  C   UNK N   1     168.148 150.403 155.330  0.00  0.00     0.070 A 
BRANCH  22  24
HETATM   24  S   UNK N   1     167.787 148.092 156.894  0.00  0.00     0.241 S 
HETATM   25  O   UNK N   1     168.434 148.064 158.287  0.00  0.00    -0.206 OA
HETATM   26  O   UNK N   1     166.339 148.507 157.192  0.00  0.00    -0.206 OA
BRANCH  24  27
HETATM   27  N   UNK N   1     167.681 146.398 156.412  0.00  0.00    -0.225 NA
HETATM   28  H   UNK N   1     167.001 145.919 157.002  0.00  0.00     0.136 HD
HETATM   29  H   UNK N   1     168.594 145.951 156.489  0.00  0.00     0.136 HD
ENDBRANCH  24  27
ENDBRANCH  22  24
ENDBRANCH   1  18
TORSDOF 5
ENDMDL
MODEL 2
REMARK VINA RESULT:      -6.8      2.312      3.178
REMARK  5 active torsions:
REMARK  status: ('A' for Active; 'I' for Inactive)
REMARK    1  A    between atoms: C_4  and  C_5 
REMARK       I    between atoms: C_5  and  N_7 
REMARK    2  A    between atoms: N_7  and  C_8 
REMARK    3  A    between atoms: C_9  and  C_8 
REMARK    4  A    between atoms: C_22  and  S_23 
REMARK    5  A    between atoms: S_23  and  N_24 
ROOT
HETATM    1  C   UNK N   1     168.853 154.080 153.528  0.00  0.00     0.275 C 
HETATM    2  O   UNK N   1     169.792 154.852 153.418  0.00  0.00    -0.265 OA
HETATM    3  N   UNK N   1     167.595 154.479 153.245  0.00  0.00    -0.355 N 
HETATM    4  H   UNK N   1     166.864 153.830 153.373  0.00  0.00     0.162 HD
ENDROOT
BRANCH   3   5
HETATM    5  C   UNK N   1     167.255 155.797 152.765  0.00  0.00     0.128 C 
BRANCH   5   6
HETATM    6  C   UNK N   1     165.917 156.328 153.335  0.00  0.00     0.017 A 
HETATM    7  C   UNK N   1     166.163 157.689 153.975  0.00  0.00     0.022 A 
HETATM    8  C   UNK N   1     165.755 156.517 154.854  0.00  0.00    -0.007 A 
HETATM    9  C   UNK N   1     166.821 156.102 155.876  0.00  0.00     0.015 C 
HETATM   10  C   UNK N   1     164.385 156.650 155.448  0.00  0.00    -0.043 A 
HETATM   11  C   UNK N   1     166.348 154.960 156.806  0.00  0.00     0.006 C 
HETATM   12  C   UNK N   1     164.911 154.469 156.542  0.00  0.00     0.039 C 
HETATM   13  C   UNK N   1     163.986 155.630 156.321  0.00  0.00    -0.051 A 
HETATM   14  C   UNK N   1     162.765 155.718 156.994  0.00  0.00     0.007 A 
HETATM   15  C   UNK N   1     161.935 156.825 156.789  0.00  0.00     0.001 A 
HETATM   16  C   UNK N   1     162.329 157.846 155.914  0.00  0.00     0.001 A 
HETATM   17  C   UNK N   1     163.556 157.764 155.248  0.00  0.00     0.008 A 
ENDBRANCH   5   6
ENDBRANCH   3   5
BRANCH   1  18
HETATM   18  C   UNK N   1     169.072 152.697 153.971  0.00  0.00     0.144 A 
HETATM   19  O   UNK N   1     170.198 152.037 153.799  0.00  0.00    -0.308 OA
HETATM   20  C   UNK N   1     170.069 150.841 154.318  0.00  0.00     0.073 A 
HETATM   21  C   UNK N   1     171.140 149.807 154.319  0.00  0.00     0.078 C 
HETATM   22  C   UNK N   1     168.803 150.714 154.850  0.00  0.00     0.106 A 
HETATM   23  C   UNK N   1     168.149 151.907 154.635  0.00  0.00     0.070 A 
BRANCH  22  24
HETATM   24  S   UNK N   1     168.104 149.293 155.677  0.00  0.00     0.241 S 
HETATM   25  O   UNK N   1     168.605 149.112 157.117  0.00  0.00    -0.206 OA
HETATM   26  O   UNK N   1     166.580 149.370 155.845  0.00  0.00    -0.206 OA
BRANCH  24  27
HETATM   27  N   UNK N   1     168.394 147.737 154.898  0.00  0.00    -0.225 NA
HETATM   28  H   UNK N   1     167.937 147.723 153.987  0.00  0.00     0.136 HD
HETATM   29  H   UNK N   1     168.042 146.979 155.483  0.00  0.00     0.136 HD
ENDBRANCH  24  27
ENDBRANCH  22  24
ENDBRANCH   1  18
TORSDOF 5
ENDMDL
MODEL 3
REMARK VINA RESULT:      -6.8     12.029     13.468
REMARK  5 active torsions:
REMARK  status: ('A' for Active; 'I' for Inactive)
REMARK    1  A    between atoms: C_4  and  C_5 
REMARK       I    between atoms: C_5  and  N_7 
REMARK    2  A    between atoms: N_7  and  C_8 
REMARK    3  A    between atoms: C_9  and  C_8 
REMARK    4  A    between atoms: C_22  and  S_23 
REMARK    5  A    between atoms: S_23  and  N_24 
ROOT
HETATM    1  C   UNK N   1     160.159 146.392 162.528  0.00  0.00     0.275 C 
HETATM    2  O   UNK N   1     160.324 145.188 162.406  0.00  0.00    -0.265 OA
HETATM    3  N   UNK N   1     159.203 147.033 161.823  0.00  0.00    -0.355 N 
HETATM    4  H   UNK N   1     159.124 148.008 161.933  0.00  0.00     0.162 HD
ENDROOT
BRANCH   3   5
HETATM    5  C   UNK N   1     158.290 146.376 160.920  0.00  0.00     0.128 C 
BRANCH   5   6
HETATM    6  C   UNK N   1     158.141 147.106 159.563  0.00  0.00     0.017 A 
HETATM    7  C   UNK N   1     156.660 147.349 159.297  0.00  0.00     0.022 A 
HETATM    8  C   UNK N   1     157.433 146.404 158.391  0.00  0.00    -0.007 A 
HETATM    9  C   UNK N   1     156.946 144.950 158.446  0.00  0.00     0.015 C 
HETATM   10  C   UNK N   1     157.616 146.915 156.993  0.00  0.00    -0.043 A 
HETATM   11  C   UNK N   1     157.700 144.029 157.457  0.00  0.00     0.006 C 
HETATM   12  C   UNK N   1     158.773 144.737 156.607  0.00  0.00     0.039 C 
HETATM   13  C   UNK N   1     158.262 146.054 156.098  0.00  0.00    -0.051 A 
HETATM   14  C   UNK N   1     158.393 146.406 154.752  0.00  0.00     0.007 A 
HETATM   15  C   UNK N   1     157.884 147.628 154.301  0.00  0.00     0.001 A 
HETATM   16  C   UNK N   1     157.240 148.495 155.194  0.00  0.00     0.001 A 
HETATM   17  C   UNK N   1     157.099 148.137 156.539  0.00  0.00     0.008 A 
ENDBRANCH   5   6
ENDBRANCH   3   5
BRANCH   1  18
HETATM   18  C   UNK N   1     161.001 147.171 163.446  0.00  0.00     0.144 A 
HETATM   19  O   UNK N   1     160.537 148.068 164.290  0.00  0.00    -0.308 OA
HETATM   20  C   UNK N   1     161.540 148.567 164.969  0.00  0.00     0.073 A 
HETATM   21  C   UNK N   1     161.404 149.610 166.023  0.00  0.00     0.078 C 
HETATM   22  C   UNK N   1     162.710 147.971 164.547  0.00  0.00     0.106 A 
HETATM   23  C   UNK N   1     162.376 147.064 163.565  0.00  0.00     0.070 A 
BRANCH  22  24
HETATM   24  S   UNK N   1     164.367 148.280 165.140  0.00  0.00     0.241 S 
HETATM   25  O   UNK N   1     164.821 149.736 164.966  0.00  0.00    -0.206 OA
HETATM   26  O   UNK N   1     164.532 148.041 166.648  0.00  0.00    -0.206 OA
BRANCH  24  27
HETATM   27  N   UNK N   1     165.639 147.316 164.389  0.00  0.00    -0.225 NA
HETATM   28  H   UNK N   1     165.977 147.792 163.552  0.00  0.00     0.136 HD
HETATM   29  H   UNK N   1     165.287 146.390 164.151  0.00  0.00     0.136 HD
ENDBRANCH  24  27
ENDBRANCH  22  24
ENDBRANCH   1  18
TORSDOF 5
ENDMDL
MODEL 4
REMARK VINA RESULT:      -6.7      5.560      9.211
REMARK  5 active torsions:
REMARK  status: ('A' for Active; 'I' for Inactive)
REMARK    1  A    between atoms: C_4  and  C_5 
REMARK       I    between atoms: C_5  and  N_7 
REMARK    2  A    between atoms: N_7  and  C_8 
REMARK    3  A    between atoms: C_9  and  C_8 
REMARK    4  A    between atoms: C_22  and  S_23 
REMARK    5  A    between atoms: S_23  and  N_24 
ROOT
HETATM    1  C   UNK N   1     167.840 157.123 156.955  0.00  0.00     0.275 C 
HETATM    2  O   UNK N   1     168.314 156.369 157.791  0.00  0.00    -0.265 OA
HETATM    3  N   UNK N   1     168.177 157.010 155.653  0.00  0.00    -0.355 N 
HETATM    4  H   UNK N   1     167.791 157.657 155.018  0.00  0.00     0.162 HD
ENDROOT
BRANCH   3   5
HETATM    5  C   UNK N   1     169.066 155.999 155.135  0.00  0.00     0.128 C 
BRANCH   5   6
HETATM    6  C   UNK N   1     168.718 155.560 153.691  0.00  0.00     0.017 A 
HETATM    7  C   UNK N   1     167.201 155.542 153.538  0.00  0.00     0.022 A 
HETATM    8  C   UNK N   1     167.972 154.234 153.456  0.00  0.00    -0.007 A 
HETATM    9  C   UNK N   1     167.637 153.242 154.576  0.00  0.00     0.015 C 
HETATM   10  C   UNK N   1     167.970 153.611 152.092  0.00  0.00    -0.043 A 
HETATM   11  C   UNK N   1     168.378 151.892 154.422  0.00  0.00     0.006 C 
HETATM   12  C   UNK N   1     169.291 151.796 153.184  0.00  0.00     0.039 C 
HETATM   13  C   UNK N   1     168.608 152.370 151.976  0.00  0.00    -0.051 A 
HETATM   14  C   UNK N   1     168.574 151.671 150.767  0.00  0.00     0.007 A 
HETATM   15  C   UNK N   1     167.907 152.218 149.666  0.00  0.00     0.001 A 
HETATM   16  C   UNK N   1     167.271 153.462 149.776  0.00  0.00     0.001 A 
HETATM   17  C   UNK N   1     167.295 154.157 150.990  0.00  0.00     0.008 A 
ENDBRANCH   5   6
ENDBRANCH   3   5
BRANCH   1  18
HETATM   18  C   UNK N   1     166.891 158.173 157.350  0.00  0.00     0.144 A 
HETATM   19  O   UNK N   1     166.105 158.097 158.403  0.00  0.00    -0.308 OA
HETATM   20  C   UNK N   1     165.397 159.197 158.480  0.00  0.00     0.073 A 
HETATM   21  C   UNK N   1     164.397 159.478 159.547  0.00  0.00     0.078 C 
HETATM   22  C   UNK N   1     165.734 160.025 157.430  0.00  0.00     0.106 A 
HETATM   23  C   UNK N   1     166.701 159.376 156.693  0.00  0.00     0.070 A 
BRANCH  22  24
HETATM   24  S   UNK N   1     165.074 161.643 157.061  0.00  0.00     0.241 S 
HETATM   25  O   UNK N   1     165.627 162.252 155.764  0.00  0.00    -0.206 OA
HETATM   26  O   UNK N   1     163.556 161.648 156.827  0.00  0.00    -0.206 OA
BRANCH  24  27
HETATM   27  N   UNK N   1     165.345 162.878 158.292  0.00  0.00    -0.225 NA
HETATM   28  H   UNK N   1     165.166 162.483 159.215  0.00  0.00     0.136 HD
HETATM   29  H   UNK N   1     164.737 163.680 158.126  0.00  0.00     0.136 HD
ENDBRANCH  24  27
ENDBRANCH  22  24
ENDBRANCH   1  18
TORSDOF 5
ENDMDL
MODEL 5
REMARK VINA RESULT:      -6.5      9.479     12.117
REMARK  5 active torsions:
REMARK  status: ('A' for Active; 'I' for Inactive)
REMARK    1  A    between atoms: C_4  and  C_5 
REMARK       I    between atoms: C_5  and  N_7 
REMARK    2  A    between atoms: N_7  and  C_8 
REMARK    3  A    between atoms: C_9  and  C_8 
REMARK    4  A    between atoms: C_22  and  S_23 
REMARK    5  A    between atoms: S_23  and  N_24 
ROOT
HETATM    1  C   UNK N   1     159.257 159.851 155.948  0.00  0.00     0.275 C 
HETATM    2  O   UNK N   1     159.780 160.927 155.704  0.00  0.00    -0.265 OA
HETATM    3  N   UNK N   1     159.979 158.834 156.464  0.00  0.00    -0.355 N 
HETATM    4  H   UNK N   1     159.522 157.975 156.620  0.00  0.00     0.162 HD
ENDROOT
BRANCH   3   5
HETATM    5  C   UNK N   1     161.378 158.929 156.804  0.00  0.00     0.128 C 
BRANCH   5   6
HETATM    6  C   UNK N   1     162.302 158.193 155.802  0.00  0.00     0.017 A 
HETATM    7  C   UNK N   1     162.504 156.761 156.284  0.00  0.00     0.022 A 
HETATM    8  C   UNK N   1     163.691 157.712 156.256  0.00  0.00    -0.007 A 
HETATM    9  C   UNK N   1     164.280 158.014 157.640  0.00  0.00     0.015 C 
HETATM   10  C   UNK N   1     164.730 157.359 155.234  0.00  0.00    -0.043 A 
HETATM   11  C   UNK N   1     165.532 158.921 157.572  0.00  0.00     0.006 C 
HETATM   12  C   UNK N   1     165.953 159.333 156.149  0.00  0.00     0.039 C 
HETATM   13  C   UNK N   1     165.877 158.162 155.212  0.00  0.00    -0.051 A 
HETATM   14  C   UNK N   1     166.938 157.851 154.359  0.00  0.00     0.007 A 
HETATM   15  C   UNK N   1     166.849 156.738 153.517  0.00  0.00     0.001 A 
HETATM   16  C   UNK N   1     165.702 155.934 153.532  0.00  0.00     0.001 A 
HETATM   17  C   UNK N   1     164.644 156.238 154.394  0.00  0.00     0.008 A 
ENDBRANCH   5   6
ENDBRANCH   3   5
BRANCH   1  18
HETATM   18  C   UNK N   1     157.828 159.638 155.682  0.00  0.00     0.144 A 
HETATM   19  O   UNK N   1     157.363 158.821 154.760  0.00  0.00    -0.308 OA
HETATM   20  C   UNK N   1     156.053 158.853 154.792  0.00  0.00     0.073 A 
HETATM   21  C   UNK N   1     155.173 158.054 153.895  0.00  0.00     0.078 C 
HETATM   22  C   UNK N   1     155.647 159.730 155.775  0.00  0.00     0.106 A 
HETATM   23  C   UNK N   1     156.784 160.243 156.360  0.00  0.00     0.070 A 
BRANCH  22  24
HETATM   24  S   UNK N   1     153.974 160.148 156.241  0.00  0.00     0.241 S 
HETATM   25  O   UNK N   1     152.951 159.050 155.911  0.00  0.00    -0.206 OA
HETATM   26  O   UNK N   1     153.791 160.351 157.752  0.00  0.00    -0.206 OA
BRANCH  24  27
HETATM   27  N   UNK N   1     153.318 161.612 155.506  0.00  0.00    -0.225 NA
HETATM   28  H   UNK N   1     153.814 161.807 154.637  0.00  0.00     0.136 HD
HETATM   29  H   UNK N   1     153.407 162.399 156.149  0.00  0.00     0.136 HD
ENDBRANCH  24  27
ENDBRANCH  22  24
ENDBRANCH   1  18
TORSDOF 5
ENDMDL
MODEL 6
REMARK VINA RESULT:      -6.5     12.087     13.686
REMARK  5 active torsions:
REMARK  status: ('A' for Active; 'I' for Inactive)
REMARK    1  A    between atoms: C_4  and  C_5 
REMARK       I    between atoms: C_5  and  N_7 
REMARK    2  A    between atoms: N_7  and  C_8 
REMARK    3  A    between atoms: C_9  and  C_8 
REMARK    4  A    between atoms: C_22  and  S_23 
REMARK    5  A    between atoms: S_23  and  N_24 
ROOT
HETATM    1  C   UNK N   1     160.065 146.774 162.166  0.00  0.00     0.275 C 
HETATM    2  O   UNK N   1     160.434 146.840 161.004  0.00  0.00    -0.265 OA
HETATM    3  N   UNK N   1     158.897 146.180 162.488  0.00  0.00    -0.355 N 
HETATM    4  H   UNK N   1     158.627 146.174 163.435  0.00  0.00     0.162 HD
ENDROOT
BRANCH   3   5
HETATM    5  C   UNK N   1     158.021 145.551 161.529  0.00  0.00     0.128 C 
BRANCH   5   6
HETATM    6  C   UNK N   1     156.929 146.504 160.982  0.00  0.00     0.017 A 
HETATM    7  C   UNK N   1     155.770 145.668 160.453  0.00  0.00     0.022 A 
HETATM    8  C   UNK N   1     156.593 146.499 159.481  0.00  0.00    -0.007 A 
HETATM    9  C   UNK N   1     157.361 145.667 158.445  0.00  0.00     0.015 C 
HETATM   10  C   UNK N   1     155.845 147.650 158.879  0.00  0.00    -0.043 A 
HETATM   11  C   UNK N   1     158.126 146.542 157.423  0.00  0.00     0.006 C 
HETATM   12  C   UNK N   1     157.965 148.061 157.628  0.00  0.00     0.039 C 
HETATM   13  C   UNK N   1     156.534 148.407 157.925  0.00  0.00    -0.051 A 
HETATM   14  C   UNK N   1     155.886 149.440 157.243  0.00  0.00     0.007 A 
HETATM   15  C   UNK N   1     154.545 149.723 157.522  0.00  0.00     0.001 A 
HETATM   16  C   UNK N   1     153.852 148.970 158.478  0.00  0.00     0.001 A 
HETATM   17  C   UNK N   1     154.497 147.929 159.153  0.00  0.00     0.008 A 
ENDBRANCH   5   6
ENDBRANCH   3   5
BRANCH   1  18
HETATM   18  C   UNK N   1     160.888 147.343 163.243  0.00  0.00     0.144 A 
HETATM   19  O   UNK N   1     160.412 148.085 164.220  0.00  0.00    -0.308 OA
HETATM   20  C   UNK N   1     161.398 148.418 165.015  0.00  0.00     0.073 A 
HETATM   21  C   UNK N   1     161.245 149.254 166.238  0.00  0.00     0.078 C 
HETATM   22  C   UNK N   1     162.569 147.872 164.534  0.00  0.00     0.106 A 
HETATM   23  C   UNK N   1     162.253 147.172 163.389  0.00  0.00     0.070 A 
BRANCH  22  24
HETATM   24  S   UNK N   1     164.207 148.012 165.233  0.00  0.00     0.241 S 
HETATM   25  O   UNK N   1     164.718 149.457 165.318  0.00  0.00    -0.206 OA
HETATM   26  O   UNK N   1     164.296 147.525 166.687  0.00  0.00    -0.206 OA
BRANCH  24  27
HETATM   27  N   UNK N   1     165.479 147.132 164.384  0.00  0.00    -0.225 NA
HETATM   28  H   UNK N   1     165.654 146.246 164.859  0.00  0.00     0.136 HD
HETATM   29  H   UNK N   1     166.332 147.690 164.350  0.00  0.00     0.136 HD
ENDBRANCH  24  27
ENDBRANCH  22  24
ENDBRANCH   1  18
TORSDOF 5
ENDMDL
MODEL 7
REMARK VINA RESULT:      -6.3      9.165     11.125
REMARK  5 active torsions:
REMARK  status: ('A' for Active; 'I' for Inactive)
REMARK    1  A    between atoms: C_4  and  C_5 
REMARK       I    between atoms: C_5  and  N_7 
REMARK    2  A    between atoms: N_7  and  C_8 
REMARK    3  A    between atoms: C_9  and  C_8 
REMARK    4  A    between atoms: C_22  and  S_23 
REMARK    5  A    between atoms: S_23  and  N_24 
ROOT
HETATM    1  C   UNK N   1     160.666 157.420 157.260  0.00  0.00     0.275 C 
HETATM    2  O   UNK N   1     160.421 158.596 157.041  0.00  0.00    -0.265 OA
HETATM    3  N   UNK N   1     159.723 156.600 157.768  0.00  0.00    -0.355 N 
HETATM    4  H   UNK N   1     159.973 155.666 157.954  0.00  0.00     0.162 HD
ENDROOT
BRANCH   3   5
HETATM    5  C   UNK N   1     158.369 157.009 158.056  0.00  0.00     0.128 C 
BRANCH   5   6
HETATM    6  C   UNK N   1     157.425 156.900 156.834  0.00  0.00     0.017 A 
HETATM    7  C   UNK N   1     156.861 158.282 156.526  0.00  0.00     0.022 A 
HETATM    8  C   UNK N   1     155.922 157.184 157.002  0.00  0.00    -0.007 A 
HETATM    9  C   UNK N   1     155.262 157.473 158.357  0.00  0.00     0.015 C 
HETATM   10  C   UNK N   1     154.952 156.717 155.959  0.00  0.00    -0.043 A 
HETATM   11  C   UNK N   1     154.255 156.376 158.778  0.00  0.00     0.006 C 
HETATM   12  C   UNK N   1     154.097 155.224 157.767  0.00  0.00     0.039 C 
HETATM   13  C   UNK N   1     154.019 155.756 156.365  0.00  0.00    -0.051 A 
HETATM   14  C   UNK N   1     153.017 155.332 155.488  0.00  0.00     0.007 A 
HETATM   15  C   UNK N   1     152.953 155.865 154.197  0.00  0.00     0.001 A 
HETATM   16  C   UNK N   1     153.887 156.824 153.784  0.00  0.00     0.001 A 
HETATM   17  C   UNK N   1     154.883 157.257 154.665  0.00  0.00     0.008 A 
ENDBRANCH   5   6
ENDBRANCH   3   5
BRANCH   1  18
HETATM   18  C   UNK N   1     161.999 156.870 156.973  0.00  0.00     0.144 A 
HETATM   19  O   UNK N   1     163.002 157.579 156.499  0.00  0.00    -0.308 OA
HETATM   20  C   UNK N   1     164.045 156.797 156.370  0.00  0.00     0.073 A 
HETATM   21  C   UNK N   1     165.373 157.246 155.866  0.00  0.00     0.078 C 
HETATM   22  C   UNK N   1     163.707 155.523 156.776  0.00  0.00     0.106 A 
HETATM   23  C   UNK N   1     162.388 155.556 157.170  0.00  0.00     0.070 A 
BRANCH  22  24
HETATM   24  S   UNK N   1     164.753 154.075 156.807  0.00  0.00     0.241 S 
HETATM   25  O   UNK N   1     165.559 153.870 155.517  0.00  0.00    -0.206 OA
HETATM   26  O   UNK N   1     165.839 154.127 157.891  0.00  0.00    -0.206 OA
BRANCH  24  27
HETATM   27  N   UNK N   1     163.924 152.540 157.072  0.00  0.00    -0.225 NA
HETATM   28  H   UNK N   1     164.344 151.821 156.481  0.00  0.00     0.136 HD
HETATM   29  H   UNK N   1     162.931 152.634 156.862  0.00  0.00     0.136 HD
ENDBRANCH  24  27
ENDBRANCH  22  24
ENDBRANCH   1  18
TORSDOF 5
ENDMDL
MODEL 8
REMARK VINA RESULT:      -6.2      9.287     11.066
REMARK  5 active torsions:
REMARK  status: ('A' for Active; 'I' for Inactive)
REMARK    1  A    between atoms: C_4  and  C_5 
REMARK       I    between atoms: C_5  and  N_7 
REMARK    2  A    between atoms: N_7  and  C_8 
REMARK    3  A    between atoms: C_9  and  C_8 
REMARK    4  A    between atoms: C_22  and  S_23 
REMARK    5  A    between atoms: S_23  and  N_24 
ROOT
HETATM    1  C   UNK N   1     161.092 157.827 156.915  0.00  0.00     0.275 C 
HETATM    2  O   UNK N   1     161.219 159.029 157.084  0.00  0.00    -0.265 OA
HETATM    3  N   UNK N   1     159.903 157.222 157.122  0.00  0.00    -0.355 N 
HETATM    4  H   UNK N   1     159.854 156.246 157.000  0.00  0.00     0.162 HD
ENDROOT
BRANCH   3   5
HETATM    5  C   UNK N   1     158.700 157.919 157.509  0.00  0.00     0.128 C 
BRANCH   5   6
HETATM    6  C   UNK N   1     157.467 156.990 157.627  0.00  0.00     0.017 A 
HETATM    7  C   UNK N   1     156.364 157.523 156.720  0.00  0.00     0.022 A 
HETATM    8  C   UNK N   1     156.158 157.532 158.227  0.00  0.00    -0.007 A 
HETATM    9  C   UNK N   1     156.021 158.937 158.829  0.00  0.00     0.015 C 
HETATM   10  C   UNK N   1     155.103 156.579 158.702  0.00  0.00    -0.043 A 
HETATM   11  C   UNK N   1     155.735 158.911 160.349  0.00  0.00     0.006 C 
HETATM   12  C   UNK N   1     155.630 157.501 160.961  0.00  0.00     0.039 C 
HETATM   13  C   UNK N   1     154.824 156.596 160.074  0.00  0.00    -0.051 A 
HETATM   14  C   UNK N   1     153.792 155.810 160.593  0.00  0.00     0.007 A 
HETATM   15  C   UNK N   1     153.041 154.997 159.738  0.00  0.00     0.001 A 
HETATM   16  C   UNK N   1     153.319 154.974 158.366  0.00  0.00     0.001 A 
HETATM   17  C   UNK N   1     154.344 155.768 157.844  0.00  0.00     0.008 A 
ENDBRANCH   5   6
ENDBRANCH   3   5
BRANCH   1  18
HETATM   18  C   UNK N   1     162.234 157.009 156.484  0.00  0.00     0.144 A 
HETATM   19  O   UNK N   1     162.987 157.287 155.440  0.00  0.00    -0.308 OA
HETATM   20  C   UNK N   1     163.920 156.373 155.339  0.00  0.00     0.073 A 
HETATM   21  C   UNK N   1     164.966 156.356 154.280  0.00  0.00     0.078 C 
HETATM   22  C   UNK N   1     163.769 155.459 156.360  0.00  0.00     0.106 A 
HETATM   23  C   UNK N   1     162.684 155.859 157.109  0.00  0.00     0.070 A 
BRANCH  22  24
HETATM   24  S   UNK N   1     164.771 154.018 156.692  0.00  0.00     0.241 S 
HETATM   25  O   UNK N   1     165.707 153.640 155.535  0.00  0.00    -0.206 OA
HETATM   26  O   UNK N   1     165.735 154.200 157.873  0.00  0.00    -0.206 OA
BRANCH  24  27
HETATM   27  N   UNK N   1     163.883 152.537 157.058  0.00  0.00    -0.225 NA
HETATM   28  H   UNK N   1     164.527 151.838 157.429  0.00  0.00     0.136 HD
HETATM   29  H   UNK N   1     163.423 152.185 156.219  0.00  0.00     0.136 HD
ENDBRANCH  24  27
ENDBRANCH  22  24
ENDBRANCH   1  18
TORSDOF 5
ENDMDL
MODEL 9
REMARK VINA RESULT:      -6.1     13.033     14.988
REMARK  5 active torsions:
REMARK  status: ('A' for Active; 'I' for Inactive)
REMARK    1  A    between atoms: C_4  and  C_5 
REMARK       I    between atoms: C_5  and  N_7 
REMARK    2  A    between atoms: N_7  and  C_8 
REMARK    3  A    between atoms: C_9  and  C_8 
REMARK    4  A    between atoms: C_22  and  S_23 
REMARK    5  A    between atoms: S_23  and  N_24 
ROOT
HETATM    1  C   UNK N   1     158.227 145.608 160.003  0.00  0.00     0.275 C 
HETATM    2  O   UNK N   1     159.052 144.916 159.428  0.00  0.00    -0.265 OA
HETATM    3  N   UNK N   1     157.802 146.770 159.463  0.00  0.00    -0.355 N 
HETATM    4  H   UNK N   1     157.156 147.309 159.975  0.00  0.00     0.162 HD
ENDROOT
BRANCH   3   5
HETATM    5  C   UNK N   1     158.237 147.270 158.181  0.00  0.00     0.128 C 
BRANCH   5   6
HETATM    6  C   UNK N   1     157.286 146.887 157.021  0.00  0.00     0.017 A 
HETATM    7  C   UNK N   1     157.843 147.459 155.723  0.00  0.00     0.022 A 
HETATM    8  C   UNK N   1     156.523 147.987 156.264  0.00  0.00    -0.007 A 
HETATM    9  C   UNK N   1     156.561 149.469 156.661  0.00  0.00     0.015 C 
HETATM   10  C   UNK N   1     155.334 147.630 155.424  0.00  0.00    -0.043 A 
HETATM   11  C   UNK N   1     155.186 149.997 157.134  0.00  0.00     0.006 C 
HETATM   12  C   UNK N   1     154.051 148.955 157.106  0.00  0.00     0.039 C 
HETATM   13  C   UNK N   1     154.102 148.149 155.840  0.00  0.00    -0.051 A 
HETATM   14  C   UNK N   1     152.955 147.947 155.068  0.00  0.00     0.007 A 
HETATM   15  C   UNK N   1     153.039 147.215 153.879  0.00  0.00     0.001 A 
HETATM   16  C   UNK N   1     154.268 146.689 153.461  0.00  0.00     0.001 A 
HETATM   17  C   UNK N   1     155.418 146.901 154.228  0.00  0.00     0.008 A 
ENDBRANCH   5   6
ENDBRANCH   3   5
BRANCH   1  18
HETATM   18  C   UNK N   1     157.676 145.190 161.300  0.00  0.00     0.144 A 
HETATM   19  O   UNK N   1     156.433 144.797 161.480  0.00  0.00    -0.308 OA
HETATM   20  C   UNK N   1     156.270 144.482 162.742  0.00  0.00     0.073 A 
HETATM   21  C   UNK N   1     154.992 143.988 163.324  0.00  0.00     0.078 C 
HETATM   22  C   UNK N   1     157.458 144.681 163.413  0.00  0.00     0.106 A 
HETATM   23  C   UNK N   1     158.376 145.137 162.493  0.00  0.00     0.070 A 
BRANCH  22  24
HETATM   24  S   UNK N   1     157.790 144.406 165.147  0.00  0.00     0.241 S 
HETATM   25  O   UNK N   1     156.772 145.075 166.082  0.00  0.00    -0.206 OA
HETATM   26  O   UNK N   1     157.721 142.928 165.557  0.00  0.00    -0.206 OA
BRANCH  24  27
HETATM   27  N   UNK N   1     159.363 144.961 165.721  0.00  0.00    -0.225 NA
HETATM   28  H   UNK N   1     160.100 144.532 165.161  0.00  0.00     0.136 HD
HETATM   29  H   UNK N   1     159.483 144.724 166.705  0.00  0.00     0.136 HD
ENDBRANCH  24  27
ENDBRANCH  22  24
ENDBRANCH   1  18
TORSDOF 5
ENDMDL
