MODEL 1
REMARK VINA RESULT:      -5.6      0.000      0.000
REMARK  5 active torsions:
REMARK  status: ('A' for Active; 'I' for Inactive)
REMARK    1  A    between atoms: C_6  and  C_7 
REMARK    2  A    between atoms: C_7  and  N_8 
REMARK    3  A    between atoms: N_8  and  C_9 
REMARK    4  A    between atoms: N_12  and  C_13 
REMARK    5  A    between atoms: C_13  and  C_14 
ROOT
HETATM    1  C   UNK N   1     156.152 146.378 160.899  0.00  0.00     0.117 A 
HETATM    2  C   UNK N   1     155.056 146.146 160.083  0.00  0.00     0.068 A 
HETATM    3  C   UNK N   1     155.261 146.979 158.995  0.00  0.00     0.114 A 
HETATM    4  N   UNK N   1     156.414 147.644 159.192  0.00  0.00    -0.297 N 
HETATM    5  N   UNK N   1     156.964 147.286 160.338  0.00  0.00    -0.284 N 
ATOM      6  HN  UNK N   1     157.842 147.634 160.725  1.00  0.00     0.188 HD
ENDROOT
BRANCH   1   7
HETATM    7  N   UNK N   1     156.420 145.737 162.135  0.00  0.00    -0.371 N 
HETATM    8  H   UNK N   1     155.999 146.079 162.957  0.00  0.00     0.161 HD
BRANCH   7   9
HETATM    9  C   UNK N   1     157.299 144.592 162.212  0.00  0.00     0.168 C 
BRANCH   9  10
HETATM   10  C   UNK N   1     158.650 144.991 162.726  0.00  0.00     0.017 A 
HETATM   11  C   UNK N   1     159.122 144.883 164.046  0.00  0.00     0.104 A 
HETATM   12  N   UNK N   1     160.388 145.392 164.240  0.00  0.00    -0.363 N 
HETATM   13  C   UNK N   1     160.918 145.904 163.102  0.00  0.00     0.047 A 
ATOM     14  HN  UNK N   1     160.872 145.384 165.138  1.00  0.00     0.165 HD
HETATM   15  C   UNK N   1     162.261 146.536 163.019  0.00  0.00     0.076 C 
HETATM   16  S   UNK N   1     159.844 145.732 161.860  0.00  0.00    -0.079 SA
ENDBRANCH   9  10
ENDBRANCH   7   9
ENDBRANCH   1   7
BRANCH   4  17
HETATM   17  C   UNK N   1     157.000 148.610 158.277  0.00  0.00     0.186 C 
BRANCH  17  18
HETATM   18  C   UNK N   1     157.376 147.944 156.998  0.00  0.00    -0.039 A 
HETATM   19  C   UNK N   1     157.069 148.562 155.782  0.00  0.00     0.009 A 
HETATM   20  C   UNK N   1     157.422 147.948 154.576  0.00  0.00     0.001 A 
HETATM   21  C   UNK N   1     158.085 146.717 154.586  0.00  0.00     0.000 A 
HETATM   22  C   UNK N   1     158.396 146.099 155.801  0.00  0.00     0.001 A 
HETATM   23  C   UNK N   1     158.042 146.712 157.008  0.00  0.00     0.009 A 
ENDBRANCH  17  18
ENDBRANCH   4  17
TORSDOF 5
ENDMDL
MODEL 2
REMARK VINA RESULT:      -5.5     13.148     14.704
REMARK  5 active torsions:
REMARK  status: ('A' for Active; 'I' for Inactive)
REMARK    1  A    between atoms: C_6  and  C_7 
REMARK    2  A    between atoms: C_7  and  N_8 
REMARK    3  A    between atoms: N_8  and  C_9 
REMARK    4  A    between atoms: N_12  and  C_13 
REMARK    5  A    between atoms: C_13  and  C_14 
ROOT
HETATM    1  C   UNK N   1     168.557 151.053 154.959  0.00  0.00     0.117 A 
HETATM    2  C   UNK N   1     169.746 150.692 155.574  0.00  0.00     0.068 A 
HETATM    3  C   UNK N   1     170.125 149.529 154.924  0.00  0.00     0.114 A 
HETATM    4  N   UNK N   1     169.194 149.252 153.992  0.00  0.00    -0.297 N 
HETATM    5  N   UNK N   1     168.244 150.169 154.001  0.00  0.00    -0.284 N 
ATOM      6  HN  UNK N   1     167.425 150.199 153.394  1.00  0.00     0.188 HD
ENDROOT
BRANCH   1   7
HETATM    7  N   UNK N   1     167.783 152.203 155.256  0.00  0.00    -0.371 N 
HETATM    8  H   UNK N   1     166.869 152.093 155.607  0.00  0.00     0.161 HD
BRANCH   7   9
HETATM    9  C   UNK N   1     168.308 153.535 155.053  0.00  0.00     0.168 C 
BRANCH   9  10
HETATM   10  C   UNK N   1     167.823 154.107 153.756  0.00  0.00     0.017 A 
HETATM   11  C   UNK N   1     166.965 155.207 153.581  0.00  0.00     0.104 A 
HETATM   12  N   UNK N   1     166.635 155.469 152.268  0.00  0.00    -0.363 N 
HETATM   13  C   UNK N   1     167.211 154.593 151.408  0.00  0.00     0.047 A 
ATOM     14  HN  UNK N   1     166.028 156.235 151.977  1.00  0.00     0.165 HD
HETATM   15  C   UNK N   1     167.017 154.623 149.935  0.00  0.00     0.076 C 
HETATM   16  S   UNK N   1     168.124 153.504 152.248  0.00  0.00    -0.079 SA
ENDBRANCH   9  10
ENDBRANCH   7   9
ENDBRANCH   1   7
BRANCH   4  17
HETATM   17  C   UNK N   1     169.222 148.120 153.080  0.00  0.00     0.186 C 
BRANCH  17  18
HETATM   18  C   UNK N   1     169.400 148.593 151.678  0.00  0.00    -0.039 A 
HETATM   19  C   UNK N   1     170.603 149.197 151.301  0.00  0.00     0.009 A 
HETATM   20  C   UNK N   1     170.782 149.640 149.987  0.00  0.00     0.001 A 
HETATM   21  C   UNK N   1     169.759 149.476 149.048  0.00  0.00     0.000 A 
HETATM   22  C   UNK N   1     168.556 148.869 149.422  0.00  0.00     0.001 A 
HETATM   23  C   UNK N   1     168.375 148.427 150.738  0.00  0.00     0.009 A 
ENDBRANCH  17  18
ENDBRANCH   4  17
TORSDOF 5
ENDMDL
MODEL 3
REMARK VINA RESULT:      -5.5      1.893      2.248
REMARK  5 active torsions:
REMARK  status: ('A' for Active; 'I' for Inactive)
REMARK    1  A    between atoms: C_6  and  C_7 
REMARK    2  A    between atoms: C_7  and  N_8 
REMARK    3  A    between atoms: N_8  and  C_9 
REMARK    4  A    between atoms: N_12  and  C_13 
REMARK    5  A    between atoms: C_13  and  C_14 
ROOT
HETATM    1  C   UNK N   1     155.406 147.028 160.665  0.00  0.00     0.117 A 
HETATM    2  C   UNK N   1     154.025 146.920 160.710  0.00  0.00     0.068 A 
HETATM    3  C   UNK N   1     153.587 147.753 159.694  0.00  0.00     0.114 A 
HETATM    4  N   UNK N   1     154.669 148.300 159.109  0.00  0.00    -0.297 N 
HETATM    5  N   UNK N   1     155.774 147.865 159.686  0.00  0.00    -0.284 N 
ATOM      6  HN  UNK N   1     156.730 148.119 159.433  1.00  0.00     0.188 HD
ENDROOT
BRANCH   1   7
HETATM    7  N   UNK N   1     156.322 146.337 161.499  0.00  0.00    -0.371 N 
HETATM    8  H   UNK N   1     156.268 146.452 162.475  0.00  0.00     0.161 HD
BRANCH   7   9
HETATM    9  C   UNK N   1     157.334 145.466 160.943  0.00  0.00     0.168 C 
BRANCH   9  10
HETATM   10  C   UNK N   1     158.693 146.087 161.062  0.00  0.00     0.017 A 
HETATM   11  C   UNK N   1     159.474 146.626 160.025  0.00  0.00     0.104 A 
HETATM   12  N   UNK N   1     160.717 147.072 160.421  0.00  0.00    -0.363 N 
HETATM   13  C   UNK N   1     160.932 146.887 161.747  0.00  0.00     0.047 A 
ATOM     14  HN  UNK N   1     161.398 147.492 159.789  1.00  0.00     0.165 HD
HETATM   15  C   UNK N   1     162.191 147.255 162.446  0.00  0.00     0.076 C 
HETATM   16  S   UNK N   1     159.606 146.185 162.435  0.00  0.00    -0.079 SA
ENDBRANCH   9  10
ENDBRANCH   7   9
ENDBRANCH   1   7
BRANCH   4  17
HETATM   17  C   UNK N   1     154.647 149.225 157.987  0.00  0.00     0.186 C 
BRANCH  17  18
HETATM   18  C   UNK N   1     155.308 148.610 156.801  0.00  0.00    -0.039 A 
HETATM   19  C   UNK N   1     156.608 148.993 156.461  0.00  0.00     0.009 A 
HETATM   20  C   UNK N   1     157.239 148.419 155.353  0.00  0.00     0.001 A 
HETATM   21  C   UNK N   1     156.571 147.460 154.586  0.00  0.00     0.000 A 
HETATM   22  C   UNK N   1     155.270 147.074 154.927  0.00  0.00     0.001 A 
HETATM   23  C   UNK N   1     154.637 147.649 156.035  0.00  0.00     0.009 A 
ENDBRANCH  17  18
ENDBRANCH   4  17
TORSDOF 5
ENDMDL
MODEL 4
REMARK VINA RESULT:      -5.4      2.296      3.201
REMARK  5 active torsions:
REMARK  status: ('A' for Active; 'I' for Inactive)
REMARK    1  A    between atoms: C_6  and  C_7 
REMARK    2  A    between atoms: C_7  and  N_8 
REMARK    3  A    between atoms: N_8  and  C_9 
REMARK    4  A    between atoms: N_12  and  C_13 
REMARK    5  A    between atoms: C_13  and  C_14 
ROOT
HETATM    1  C   UNK N   1     158.649 146.717 160.081  0.00  0.00     0.117 A 
HETATM    2  C   UNK N   1     158.555 145.423 159.593  0.00  0.00     0.068 A 
HETATM    3  C   UNK N   1     158.284 145.588 158.245  0.00  0.00     0.114 A 
HETATM    4  N   UNK N   1     158.228 146.909 157.990  0.00  0.00    -0.297 N 
HETATM    5  N   UNK N   1     158.452 147.601 159.092  0.00  0.00    -0.284 N 
ATOM      6  HN  UNK N   1     158.471 148.618 159.176  1.00  0.00     0.188 HD
ENDROOT
BRANCH   1   7
HETATM    7  N   UNK N   1     158.945 147.082 161.418  0.00  0.00    -0.371 N 
HETATM    8  H   UNK N   1     158.726 147.991 161.731  0.00  0.00     0.161 HD
BRANCH   7   9
HETATM    9  C   UNK N   1     159.561 146.147 162.334  0.00  0.00     0.168 C 
BRANCH   9  10
HETATM   10  C   UNK N   1     160.766 146.756 162.984  0.00  0.00     0.017 A 
HETATM   11  C   UNK N   1     162.101 146.665 162.552  0.00  0.00     0.104 A 
HETATM   12  N   UNK N   1     163.013 147.273 163.389  0.00  0.00    -0.363 N 
HETATM   13  C   UNK N   1     162.423 147.834 164.474  0.00  0.00     0.047 A 
ATOM     14  HN  UNK N   1     164.017 147.298 163.212  1.00  0.00     0.165 HD
HETATM   15  C   UNK N   1     163.162 148.540 165.552  0.00  0.00     0.076 C 
HETATM   16  S   UNK N   1     160.791 147.591 164.408  0.00  0.00    -0.079 SA
ENDBRANCH   9  10
ENDBRANCH   7   9
ENDBRANCH   1   7
BRANCH   4  17
HETATM   17  C   UNK N   1     157.979 147.510 156.690  0.00  0.00     0.186 C 
BRANCH  17  18
HETATM   18  C   UNK N   1     156.609 148.096 156.648  0.00  0.00    -0.039 A 
HETATM   19  C   UNK N   1     155.565 147.369 156.069  0.00  0.00     0.009 A 
HETATM   20  C   UNK N   1     154.275 147.907 156.029  0.00  0.00     0.001 A 
HETATM   21  C   UNK N   1     154.028 149.171 156.571  0.00  0.00     0.000 A 
HETATM   22  C   UNK N   1     155.071 149.899 157.154  0.00  0.00     0.001 A 
HETATM   23  C   UNK N   1     156.362 149.362 157.193  0.00  0.00     0.009 A 
ENDBRANCH  17  18
ENDBRANCH   4  17
TORSDOF 5
ENDMDL
MODEL 5
REMARK VINA RESULT:      -5.4      2.600      3.514
REMARK  5 active torsions:
REMARK  status: ('A' for Active; 'I' for Inactive)
REMARK    1  A    between atoms: C_6  and  C_7 
REMARK    2  A    between atoms: C_7  and  N_8 
REMARK    3  A    between atoms: N_8  and  C_9 
REMARK    4  A    between atoms: N_12  and  C_13 
REMARK    5  A    between atoms: C_13  and  C_14 
ROOT
HETATM    1  C   UNK N   1     159.110 146.660 161.506  0.00  0.00     0.117 A 
HETATM    2  C   UNK N   1     159.321 145.397 160.975  0.00  0.00     0.068 A 
HETATM    3  C   UNK N   1     158.226 145.186 160.154  0.00  0.00     0.114 A 
HETATM    4  N   UNK N   1     157.440 146.277 160.223  0.00  0.00    -0.297 N 
HETATM    5  N   UNK N   1     157.967 147.176 161.034  0.00  0.00    -0.284 N 
ATOM      6  HN  UNK N   1     157.577 148.091 161.259  1.00  0.00     0.188 HD
ENDROOT
BRANCH   1   7
HETATM    7  N   UNK N   1     159.977 147.344 162.395  0.00  0.00    -0.371 N 
HETATM    8  H   UNK N   1     160.124 148.311 162.277  0.00  0.00     0.161 HD
BRANCH   7   9
HETATM    9  C   UNK N   1     160.650 146.651 163.471  0.00  0.00     0.168 C 
BRANCH   9  10
HETATM   10  C   UNK N   1     161.054 147.609 164.551  0.00  0.00     0.017 A 
HETATM   11  C   UNK N   1     160.224 148.187 165.527  0.00  0.00     0.104 A 
HETATM   12  N   UNK N   1     160.860 149.087 166.355  0.00  0.00    -0.363 N 
HETATM   13  C   UNK N   1     162.173 149.232 166.046  0.00  0.00     0.047 A 
ATOM     14  HN  UNK N   1     160.397 149.586 167.114  1.00  0.00     0.165 HD
HETATM   15  C   UNK N   1     163.100 150.149 166.759  0.00  0.00     0.076 C 
HETATM   16  S   UNK N   1     162.555 148.261 164.767  0.00  0.00    -0.079 SA
ENDBRANCH   9  10
ENDBRANCH   7   9
ENDBRANCH   1   7
BRANCH   4  17
HETATM   17  C   UNK N   1     156.193 146.467 159.498  0.00  0.00     0.186 C 
BRANCH  17  18
HETATM   18  C   UNK N   1     156.397 147.411 158.362  0.00  0.00    -0.039 A 
HETATM   19  C   UNK N   1     155.912 148.718 158.455  0.00  0.00     0.009 A 
HETATM   20  C   UNK N   1     156.102 149.612 157.397  0.00  0.00     0.001 A 
HETATM   21  C   UNK N   1     156.781 149.200 156.247  0.00  0.00     0.000 A 
HETATM   22  C   UNK N   1     157.271 147.894 156.154  0.00  0.00     0.001 A 
HETATM   23  C   UNK N   1     157.079 146.997 157.211  0.00  0.00     0.009 A 
ENDBRANCH  17  18
ENDBRANCH   4  17
TORSDOF 5
ENDMDL
MODEL 6
REMARK VINA RESULT:      -5.4     13.416     14.771
REMARK  5 active torsions:
REMARK  status: ('A' for Active; 'I' for Inactive)
REMARK    1  A    between atoms: C_6  and  C_7 
REMARK    2  A    between atoms: C_7  and  N_8 
REMARK    3  A    between atoms: N_8  and  C_9 
REMARK    4  A    between atoms: N_12  and  C_13 
REMARK    5  A    between atoms: C_13  and  C_14 
ROOT
HETATM    1  C   UNK N   1     169.801 151.705 154.691  0.00  0.00     0.117 A 
HETATM    2  C   UNK N   1     168.553 151.549 155.274  0.00  0.00     0.068 A 
HETATM    3  C   UNK N   1     167.799 152.582 154.742  0.00  0.00     0.114 A 
HETATM    4  N   UNK N   1     168.586 153.282 153.903  0.00  0.00    -0.297 N 
HETATM    5  N   UNK N   1     169.797 152.757 153.861  0.00  0.00    -0.284 N 
ATOM      6  HN  UNK N   1     170.583 153.091 153.303  1.00  0.00     0.188 HD
ENDROOT
BRANCH   1   7
HETATM    7  N   UNK N   1     170.925 150.866 154.897  0.00  0.00    -0.371 N 
HETATM    8  H   UNK N   1     171.726 151.232 155.338  0.00  0.00     0.161 HD
BRANCH   7   9
HETATM    9  C   UNK N   1     170.919 149.484 154.472  0.00  0.00     0.168 C 
BRANCH   9  10
HETATM   10  C   UNK N   1     170.551 149.374 153.023  0.00  0.00     0.017 A 
HETATM   11  C   UNK N   1     171.326 149.767 151.918  0.00  0.00     0.104 A 
HETATM   12  N   UNK N   1     170.702 149.605 150.699  0.00  0.00    -0.363 N 
HETATM   13  C   UNK N   1     169.449 149.101 150.824  0.00  0.00     0.047 A 
ATOM     14  HN  UNK N   1     171.133 149.839 149.805  1.00  0.00     0.165 HD
HETATM   15  C   UNK N   1     168.538 148.841 149.680  0.00  0.00     0.076 C 
HETATM   16  S   UNK N   1     169.107 148.848 152.420  0.00  0.00    -0.079 SA
ENDBRANCH   9  10
ENDBRANCH   7   9
ENDBRANCH   1   7
BRANCH   4  17
HETATM   17  C   UNK N   1     168.175 154.441 153.128  0.00  0.00     0.186 C 
BRANCH  17  18
HETATM   18  C   UNK N   1     167.717 154.018 151.774  0.00  0.00    -0.039 A 
HETATM   19  C   UNK N   1     166.814 154.820 151.070  0.00  0.00     0.009 A 
HETATM   20  C   UNK N   1     166.382 154.435 149.796  0.00  0.00     0.001 A 
HETATM   21  C   UNK N   1     166.856 153.251 149.226  0.00  0.00     0.000 A 
HETATM   22  C   UNK N   1     167.763 152.450 149.927  0.00  0.00     0.001 A 
HETATM   23  C   UNK N   1     168.194 152.833 151.202  0.00  0.00     0.009 A 
ENDBRANCH  17  18
ENDBRANCH   4  17
TORSDOF 5
ENDMDL
MODEL 7
REMARK VINA RESULT:      -5.4      2.896      7.849
REMARK  5 active torsions:
REMARK  status: ('A' for Active; 'I' for Inactive)
REMARK    1  A    between atoms: C_6  and  C_7 
REMARK    2  A    between atoms: C_7  and  N_8 
REMARK    3  A    between atoms: N_8  and  C_9 
REMARK    4  A    between atoms: N_12  and  C_13 
REMARK    5  A    between atoms: C_13  and  C_14 
ROOT
HETATM    1  C   UNK N   1     160.186 146.578 161.755  0.00  0.00     0.117 A 
HETATM    2  C   UNK N   1     160.259 145.352 162.397  0.00  0.00     0.068 A 
HETATM    3  C   UNK N   1     160.313 145.676 163.743  0.00  0.00     0.114 A 
HETATM    4  N   UNK N   1     160.272 147.018 163.849  0.00  0.00    -0.297 N 
HETATM    5  N   UNK N   1     160.190 147.573 162.654  0.00  0.00    -0.284 N 
ATOM      6  HN  UNK N   1     160.141 148.572 162.451  1.00  0.00     0.188 HD
ENDROOT
BRANCH   1   7
HETATM    7  N   UNK N   1     160.084 146.780 160.355  0.00  0.00    -0.371 N 
HETATM    8  H   UNK N   1     160.726 147.375 159.905  0.00  0.00     0.161 HD
BRANCH   7   9
HETATM    9  C   UNK N   1     159.055 146.128 159.576  0.00  0.00     0.168 C 
BRANCH   9  10
HETATM   10  C   UNK N   1     157.947 147.084 159.252  0.00  0.00     0.017 A 
HETATM   11  C   UNK N   1     156.766 147.296 159.986  0.00  0.00     0.104 A 
HETATM   12  N   UNK N   1     155.893 148.194 159.412  0.00  0.00    -0.363 N 
HETATM   13  C   UNK N   1     156.359 148.688 158.238  0.00  0.00     0.047 A 
ATOM     14  HN  UNK N   1     154.998 148.458 159.824  1.00  0.00     0.165 HD
HETATM   15  C   UNK N   1     155.620 149.660 157.392  0.00  0.00     0.076 C 
HETATM   16  S   UNK N   1     157.836 148.032 157.905  0.00  0.00    -0.079 SA
ENDBRANCH   9  10
ENDBRANCH   7   9
ENDBRANCH   1   7
BRANCH   4  17
HETATM   17  C   UNK N   1     160.292 147.769 165.094  0.00  0.00     0.186 C 
BRANCH  17  18
HETATM   18  C   UNK N   1     161.542 148.576 165.187  0.00  0.00    -0.039 A 
HETATM   19  C   UNK N   1     161.517 149.811 165.842  0.00  0.00     0.009 A 
HETATM   20  C   UNK N   1     162.684 150.575 165.940  0.00  0.00     0.001 A 
HETATM   21  C   UNK N   1     163.878 150.102 165.386  0.00  0.00     0.000 A 
HETATM   22  C   UNK N   1     163.905 148.865 164.734  0.00  0.00     0.001 A 
HETATM   23  C   UNK N   1     162.737 148.101 164.634  0.00  0.00     0.009 A 
ENDBRANCH  17  18
ENDBRANCH   4  17
TORSDOF 5
ENDMDL
MODEL 8
REMARK VINA RESULT:      -5.4     13.750     15.347
REMARK  5 active torsions:
REMARK  status: ('A' for Active; 'I' for Inactive)
REMARK    1  A    between atoms: C_6  and  C_7 
REMARK    2  A    between atoms: C_7  and  N_8 
REMARK    3  A    between atoms: N_8  and  C_9 
REMARK    4  A    between atoms: N_12  and  C_13 
REMARK    5  A    between atoms: C_13  and  C_14 
ROOT
HETATM    1  C   UNK N   1     168.483 155.634 154.706  0.00  0.00     0.117 A 
HETATM    2  C   UNK N   1     168.355 156.572 153.694  0.00  0.00     0.068 A 
HETATM    3  C   UNK N   1     167.394 157.451 154.165  0.00  0.00     0.114 A 
HETATM    4  N   UNK N   1     167.002 157.026 155.381  0.00  0.00    -0.297 N 
HETATM    5  N   UNK N   1     167.658 155.931 155.720  0.00  0.00    -0.284 N 
ATOM      6  HN  UNK N   1     167.555 155.407 156.590  1.00  0.00     0.188 HD
ENDROOT
BRANCH   1   7
HETATM    7  N   UNK N   1     169.375 154.532 154.711  0.00  0.00    -0.371 N 
HETATM    8  H   UNK N   1     169.892 154.333 155.525  0.00  0.00     0.161 HD
BRANCH   7   9
HETATM    9  C   UNK N   1     169.539 153.694 153.544  0.00  0.00     0.168 C 
BRANCH   9  10
HETATM   10  C   UNK N   1     169.079 152.295 153.823  0.00  0.00     0.017 A 
HETATM   11  C   UNK N   1     169.201 151.177 152.980  0.00  0.00     0.104 A 
HETATM   12  N   UNK N   1     168.626 150.026 153.474  0.00  0.00    -0.363 N 
HETATM   13  C   UNK N   1     168.048 150.218 154.687  0.00  0.00     0.047 A 
ATOM     14  HN  UNK N   1     168.634 149.131 152.985  1.00  0.00     0.165 HD
HETATM   15  C   UNK N   1     167.338 149.158 155.448  0.00  0.00     0.076 C 
HETATM   16  S   UNK N   1     168.244 151.789 155.154  0.00  0.00    -0.079 SA
ENDBRANCH   9  10
ENDBRANCH   7   9
ENDBRANCH   1   7
BRANCH   4  17
HETATM   17  C   UNK N   1     166.015 157.676 156.227  0.00  0.00     0.186 C 
BRANCH  17  18
HETATM   18  C   UNK N   1     166.608 158.877 156.881  0.00  0.00    -0.039 A 
HETATM   19  C   UNK N   1     166.199 160.153 156.483  0.00  0.00     0.009 A 
HETATM   20  C   UNK N   1     166.745 161.286 157.093  0.00  0.00     0.001 A 
HETATM   21  C   UNK N   1     167.700 161.143 158.104  0.00  0.00     0.000 A 
HETATM   22  C   UNK N   1     168.108 159.868 158.507  0.00  0.00     0.001 A 
HETATM   23  C   UNK N   1     167.563 158.733 157.895  0.00  0.00     0.009 A 
ENDBRANCH  17  18
ENDBRANCH   4  17
TORSDOF 5
ENDMDL
MODEL 9
REMARK VINA RESULT:      -5.3     12.119     13.672
REMARK  5 active torsions:
REMARK  status: ('A' for Active; 'I' for Inactive)
REMARK    1  A    between atoms: C_6  and  C_7 
REMARK    2  A    between atoms: C_7  and  N_8 
REMARK    3  A    between atoms: N_8  and  C_9 
REMARK    4  A    between atoms: N_12  and  C_13 
REMARK    5  A    between atoms: C_13  and  C_14 
ROOT
HETATM    1  C   UNK N   1     169.621 152.603 153.698  0.00  0.00     0.117 A 
HETATM    2  C   UNK N   1     168.792 152.431 152.600  0.00  0.00     0.068 A 
HETATM    3  C   UNK N   1     168.074 153.614 152.529  0.00  0.00     0.114 A 
HETATM    4  N   UNK N   1     168.480 154.408 153.538  0.00  0.00    -0.297 N 
HETATM    5  N   UNK N   1     169.418 153.809 154.248  0.00  0.00    -0.284 N 
ATOM      6  HN  UNK N   1     169.899 154.191 155.063  1.00  0.00     0.188 HD
ENDROOT
BRANCH   1   7
HETATM    7  N   UNK N   1     170.578 151.670 154.172  0.00  0.00    -0.371 N 
HETATM    8  H   UNK N   1     171.198 151.937 154.890  0.00  0.00     0.161 HD
BRANCH   7   9
HETATM    9  C   UNK N   1     170.661 150.335 153.623  0.00  0.00     0.168 C 
BRANCH   9  10
HETATM   10  C   UNK N   1     169.734 149.404 154.343  0.00  0.00     0.017 A 
HETATM   11  C   UNK N   1     168.616 148.738 153.810  0.00  0.00     0.104 A 
HETATM   12  N   UNK N   1     167.907 147.992 154.728  0.00  0.00    -0.363 N 
HETATM   13  C   UNK N   1     168.440 148.064 155.973  0.00  0.00     0.047 A 
ATOM     14  HN  UNK N   1     167.076 147.448 154.496  1.00  0.00     0.165 HD
HETATM   15  C   UNK N   1     167.873 147.377 157.162  0.00  0.00     0.076 C 
HETATM   16  S   UNK N   1     169.777 149.033 155.952  0.00  0.00    -0.079 SA
ENDBRANCH   9  10
ENDBRANCH   7   9
ENDBRANCH   1   7
BRANCH   4  17
HETATM   17  C   UNK N   1     167.985 155.747 153.811  0.00  0.00     0.186 C 
BRANCH  17  18
HETATM   18  C   UNK N   1     166.515 155.711 154.061  0.00  0.00    -0.039 A 
HETATM   19  C   UNK N   1     166.021 155.024 155.173  0.00  0.00     0.009 A 
HETATM   20  C   UNK N   1     164.645 154.988 155.420  0.00  0.00     0.001 A 
HETATM   21  C   UNK N   1     163.763 155.642 154.555  0.00  0.00     0.000 A 
HETATM   22  C   UNK N   1     164.256 156.333 153.443  0.00  0.00     0.001 A 
HETATM   23  C   UNK N   1     165.633 156.368 153.195  0.00  0.00     0.009 A 
ENDBRANCH  17  18
ENDBRANCH   4  17
TORSDOF 5
ENDMDL
