MODEL 1
REMARK VINA RESULT:      -6.9      0.000      0.000
REMARK  5 active torsions:
REMARK  status: ('A' for Active; 'I' for Inactive)
REMARK    1  A    between atoms: O_2  and  C_3 
REMARK    2  A    between atoms: C_5  and  C_3 
REMARK    3  A    between atoms: C_7  and  C_8 
REMARK       I    between atoms: N_15  and  C_16 
REMARK    4  A    between atoms: C_16  and  C_18 
REMARK    5  A    between atoms: C_18  and  N_19 
ROOT
HETATM    1  C   UNK N   1     166.937 157.788 155.676  0.00  0.00     0.104 C 
HETATM    2  C   UNK N   1     166.335 157.247 156.982  0.00  0.00     0.027 C 
HETATM    3  C   UNK N   1     165.340 156.125 156.671  0.00  0.00     0.037 C 
HETATM    4  C   UNK N   1     166.102 154.931 156.088  0.00  0.00     0.135 C 
HETATM    5  N   UNK N   1     167.257 155.362 155.317  0.00  0.00    -0.349 N 
HETATM    6  C   UNK N   1     168.370 154.579 155.267  0.00  0.00     0.239 C 
HETATM    7  O   UNK N   1     169.358 154.953 154.649  0.00  0.00    -0.271 OA
HETATM    8  C   UNK N   1     167.227 156.660 154.662  0.00  0.00     0.140 C 
ENDROOT
BRANCH   6   9
HETATM    9  C   UNK N   1     168.389 153.244 155.978  0.00  0.00     0.257 C 
BRANCH   9  10
HETATM   10  N   UNK N   1     168.766 152.160 155.087  0.00  0.00    -0.232 N 
HETATM   11  N   UNK N   1     169.825 152.182 154.284  0.00  0.00    -0.278 N 
HETATM   12  C   UNK N   1     169.831 150.996 153.637  0.00  0.00     0.130 A 
ATOM     13  HN  UNK N   1     170.496 152.943 154.176  1.00  0.00     0.189 HD
HETATM   14  C   UNK N   1     170.758 150.560 152.698  0.00  0.00     0.050 A 
HETATM   15  N   UNK N   1     168.797 150.221 154.010  0.00  0.00    -0.258 N 
HETATM   16  C   UNK N   1     170.569 149.277 152.157  0.00  0.00     0.005 A 
HETATM   17  C   UNK N   1     169.475 148.481 152.563  0.00  0.00     0.018 A 
HETATM   18  C   UNK N   1     168.573 148.980 153.517  0.00  0.00     0.103 A 
HETATM   19  C   UNK N   1     168.138 150.968 154.921  0.00  0.00     0.349 A 
HETATM   20  O   UNK N   1     167.127 150.622 155.509  0.00  0.00    -0.244 OA
ENDBRANCH   9  10
ENDBRANCH   6   9
BRANCH   3  21
HETATM   21  C   UNK N   1     164.499 155.727 157.855  0.00  0.00    -0.052 A 
HETATM   22  C   UNK N   1     163.117 155.953 157.828  0.00  0.00     0.007 A 
HETATM   23  C   UNK N   1     162.324 155.604 158.924  0.00  0.00     0.001 A 
HETATM   24  C   UNK N   1     162.910 155.045 160.062  0.00  0.00     0.000 A 
HETATM   25  C   UNK N   1     164.289 154.827 160.103  0.00  0.00     0.001 A 
HETATM   26  C   UNK N   1     165.081 155.164 159.003  0.00  0.00     0.007 A 
ENDBRANCH   3  21
BRANCH   1  27
HETATM   27  C   UNK N   1     166.038 158.829 155.057  0.00  0.00     0.264 C 
HETATM   28  O   UNK N   1     165.865 158.853 153.844  0.00  0.00    -0.265 OA
BRANCH  27  29
HETATM   29  O   UNK N   1     165.408 159.726 155.853  0.00  0.00    -0.326 OA
HETATM   30  C   UNK N   1     166.067 160.802 156.403  0.00  0.00     0.213 C 
ENDBRANCH  27  29
ENDBRANCH   1  27
TORSDOF 5
ENDMDL
MODEL 2
REMARK VINA RESULT:      -6.7      2.195      2.902
REMARK  5 active torsions:
REMARK  status: ('A' for Active; 'I' for Inactive)
REMARK    1  A    between atoms: O_2  and  C_3 
REMARK    2  A    between atoms: C_5  and  C_3 
REMARK    3  A    between atoms: C_7  and  C_8 
REMARK       I    between atoms: N_15  and  C_16 
REMARK    4  A    between atoms: C_16  and  C_18 
REMARK    5  A    between atoms: C_18  and  N_19 
ROOT
HETATM    1  C   UNK N   1     166.929 157.466 154.206  0.00  0.00     0.104 C 
HETATM    2  C   UNK N   1     167.545 157.120 155.570  0.00  0.00     0.027 C 
HETATM    3  C   UNK N   1     166.834 155.903 156.169  0.00  0.00     0.037 C 
HETATM    4  C   UNK N   1     167.132 154.676 155.302  0.00  0.00     0.135 C 
HETATM    5  N   UNK N   1     167.292 155.039 153.904  0.00  0.00    -0.349 N 
HETATM    6  C   UNK N   1     168.142 154.328 153.111  0.00  0.00     0.239 C 
HETATM    7  O   UNK N   1     168.307 154.651 151.942  0.00  0.00    -0.271 OA
HETATM    8  C   UNK N   1     166.588 156.202 153.388  0.00  0.00     0.140 C 
ENDROOT
BRANCH   6   9
HETATM    9  C   UNK N   1     168.885 153.138 153.674  0.00  0.00     0.257 C 
BRANCH   9  10
HETATM   10  N   UNK N   1     168.877 152.009 152.758  0.00  0.00    -0.232 N 
HETATM   11  N   UNK N   1     168.601 152.098 151.461  0.00  0.00    -0.278 N 
HETATM   12  C   UNK N   1     168.709 150.844 150.968  0.00  0.00     0.130 A 
ATOM     13  HN  UNK N   1     168.356 152.941 150.943  1.00  0.00     0.189 HD
HETATM   14  C   UNK N   1     168.519 150.445 149.651  0.00  0.00     0.050 A 
HETATM   15  N   UNK N   1     169.045 149.961 151.925  0.00  0.00    -0.258 N 
HETATM   16  C   UNK N   1     168.693 149.080 149.362  0.00  0.00     0.005 A 
HETATM   17  C   UNK N   1     169.045 148.170 150.384  0.00  0.00     0.018 A 
HETATM   18  C   UNK N   1     169.223 148.638 151.695  0.00  0.00     0.103 A 
HETATM   19  C   UNK N   1     169.145 150.710 153.043  0.00  0.00     0.349 A 
HETATM   20  O   UNK N   1     169.436 150.281 154.147  0.00  0.00    -0.244 OA
ENDBRANCH   9  10
ENDBRANCH   6   9
BRANCH   3  21
HETATM   21  C   UNK N   1     167.177 155.662 157.614  0.00  0.00    -0.052 A 
HETATM   22  C   UNK N   1     168.294 156.297 158.174  0.00  0.00     0.007 A 
HETATM   23  C   UNK N   1     168.636 156.074 159.511  0.00  0.00     0.001 A 
HETATM   24  C   UNK N   1     167.875 155.200 160.291  0.00  0.00     0.000 A 
HETATM   25  C   UNK N   1     166.767 154.553 159.738  0.00  0.00     0.001 A 
HETATM   26  C   UNK N   1     166.417 154.785 158.406  0.00  0.00     0.007 A 
ENDBRANCH   3  21
BRANCH   1  27
HETATM   27  C   UNK N   1     165.704 158.330 154.370  0.00  0.00     0.264 C 
HETATM   28  O   UNK N   1     165.814 159.494 154.739  0.00  0.00    -0.265 OA
BRANCH  27  29
HETATM   29  O   UNK N   1     164.482 157.816 154.090  0.00  0.00    -0.326 OA
HETATM   30  C   UNK N   1     163.597 157.459 155.082  0.00  0.00     0.213 C 
ENDBRANCH  27  29
ENDBRANCH   1  27
TORSDOF 5
ENDMDL
MODEL 3
REMARK VINA RESULT:      -6.6      1.796      2.276
REMARK  5 active torsions:
REMARK  status: ('A' for Active; 'I' for Inactive)
REMARK    1  A    between atoms: O_2  and  C_3 
REMARK    2  A    between atoms: C_5  and  C_3 
REMARK    3  A    between atoms: C_7  and  C_8 
REMARK       I    between atoms: N_15  and  C_16 
REMARK    4  A    between atoms: C_16  and  C_18 
REMARK    5  A    between atoms: C_18  and  N_19 
ROOT
HETATM    1  C   UNK N   1     166.717 157.404 154.967  0.00  0.00     0.104 C 
HETATM    2  C   UNK N   1     167.372 157.441 156.357  0.00  0.00     0.027 C 
HETATM    3  C   UNK N   1     166.605 156.527 157.318  0.00  0.00     0.037 C 
HETATM    4  C   UNK N   1     166.772 155.074 156.863  0.00  0.00     0.135 C 
HETATM    5  N   UNK N   1     166.890 154.979 155.418  0.00  0.00    -0.349 N 
HETATM    6  C   UNK N   1     167.647 153.992 154.862  0.00  0.00     0.239 C 
HETATM    7  O   UNK N   1     167.779 153.928 153.647  0.00  0.00    -0.271 OA
HETATM    8  C   UNK N   1     166.247 155.984 154.586  0.00  0.00     0.140 C 
ENDROOT
BRANCH   6   9
HETATM    9  C   UNK N   1     168.329 152.973 155.747  0.00  0.00     0.257 C 
BRANCH   9  10
HETATM   10  N   UNK N   1     168.804 151.827 154.989  0.00  0.00    -0.232 N 
HETATM   11  N   UNK N   1     169.921 151.814 154.268  0.00  0.00    -0.278 N 
HETATM   12  C   UNK N   1     170.009 150.576 153.734  0.00  0.00     0.130 A 
ATOM     13  HN  UNK N   1     170.578 152.584 154.144  1.00  0.00     0.189 HD
HETATM   14  C   UNK N   1     171.018 150.091 152.911  0.00  0.00     0.050 A 
HETATM   15  N   UNK N   1     168.970 149.803 154.097  0.00  0.00    -0.258 N 
HETATM   16  C   UNK N   1     170.907 148.759 152.476  0.00  0.00     0.005 A 
HETATM   17  C   UNK N   1     169.805 147.966 152.869  0.00  0.00     0.018 A 
HETATM   18  C   UNK N   1     168.819 148.517 153.703  0.00  0.00     0.103 A 
HETATM   19  C   UNK N   1     168.222 150.605 154.884  0.00  0.00     0.349 A 
HETATM   20  O   UNK N   1     167.178 150.279 155.423  0.00  0.00    -0.244 OA
ENDBRANCH   9  10
ENDBRANCH   6   9
BRANCH   3  21
HETATM   21  C   UNK N   1     166.999 156.711 158.759  0.00  0.00    -0.052 A 
HETATM   22  C   UNK N   1     166.409 157.736 159.511  0.00  0.00     0.007 A 
HETATM   23  C   UNK N   1     166.775 157.930 160.846  0.00  0.00     0.001 A 
HETATM   24  C   UNK N   1     167.746 157.114 161.432  0.00  0.00     0.000 A 
HETATM   25  C   UNK N   1     168.348 156.098 160.686  0.00  0.00     0.001 A 
HETATM   26  C   UNK N   1     167.974 155.895 159.356  0.00  0.00     0.007 A 
ENDBRANCH   3  21
BRANCH   1  27
HETATM   27  C   UNK N   1     165.566 158.376 154.887  0.00  0.00     0.264 C 
HETATM   28  O   UNK N   1     165.773 159.583 154.926  0.00  0.00    -0.265 OA
BRANCH  27  29
HETATM   29  O   UNK N   1     164.303 157.904 154.753  0.00  0.00    -0.326 OA
HETATM   30  C   UNK N   1     163.425 157.860 155.812  0.00  0.00     0.213 C 
ENDBRANCH  27  29
ENDBRANCH   1  27
TORSDOF 5
ENDMDL
MODEL 4
REMARK VINA RESULT:      -6.6      2.558      9.324
REMARK  5 active torsions:
REMARK  status: ('A' for Active; 'I' for Inactive)
REMARK    1  A    between atoms: O_2  and  C_3 
REMARK    2  A    between atoms: C_5  and  C_3 
REMARK    3  A    between atoms: C_7  and  C_8 
REMARK       I    between atoms: N_15  and  C_16 
REMARK    4  A    between atoms: C_16  and  C_18 
REMARK    5  A    between atoms: C_18  and  N_19 
ROOT
HETATM    1  C   UNK N   1     170.337 149.059 155.810  0.00  0.00     0.104 C 
HETATM    2  C   UNK N   1     170.675 149.268 154.326  0.00  0.00     0.027 C 
HETATM    3  C   UNK N   1     169.387 149.280 153.496  0.00  0.00     0.037 C 
HETATM    4  C   UNK N   1     168.565 150.517 153.870  0.00  0.00     0.135 C 
HETATM    5  N   UNK N   1     168.750 150.876 155.266  0.00  0.00    -0.349 N 
HETATM    6  C   UNK N   1     168.683 152.183 155.645  0.00  0.00     0.239 C 
HETATM    7  O   UNK N   1     168.873 152.495 156.813  0.00  0.00    -0.271 OA
HETATM    8  C   UNK N   1     169.069 149.835 156.229  0.00  0.00     0.140 C 
ENDROOT
BRANCH   6   9
HETATM    9  C   UNK N   1     168.376 153.253 154.621  0.00  0.00     0.257 C 
BRANCH   9  10
HETATM   10  N   UNK N   1     167.098 153.896 154.876  0.00  0.00    -0.232 N 
HETATM   11  N   UNK N   1     166.212 153.478 155.774  0.00  0.00    -0.278 N 
HETATM   12  C   UNK N   1     165.175 154.341 155.710  0.00  0.00     0.130 A 
ATOM     13  HN  UNK N   1     166.298 152.667 156.387  1.00  0.00     0.189 HD
HETATM   14  C   UNK N   1     164.014 154.311 156.472  0.00  0.00     0.050 A 
HETATM   15  N   UNK N   1     165.382 155.298 154.788  0.00  0.00    -0.258 N 
HETATM   16  C   UNK N   1     163.066 155.323 156.239  0.00  0.00     0.005 A 
HETATM   17  C   UNK N   1     163.304 156.317 155.264  0.00  0.00     0.018 A 
HETATM   18  C   UNK N   1     164.498 156.291 154.527  0.00  0.00     0.103 A 
HETATM   19  C   UNK N   1     166.593 155.002 154.272  0.00  0.00     0.349 A 
HETATM   20  O   UNK N   1     167.153 155.638 153.395  0.00  0.00    -0.244 OA
ENDBRANCH   9  10
ENDBRANCH   6   9
BRANCH   3  21
HETATM   21  C   UNK N   1     169.633 149.199 152.013  0.00  0.00    -0.052 A 
HETATM   22  C   UNK N   1     170.702 149.909 151.450  0.00  0.00     0.007 A 
HETATM   23  C   UNK N   1     170.936 149.857 150.073  0.00  0.00     0.001 A 
HETATM   24  C   UNK N   1     170.091 149.112 149.247  0.00  0.00     0.000 A 
HETATM   25  C   UNK N   1     169.015 148.411 149.798  0.00  0.00     0.001 A 
HETATM   26  C   UNK N   1     168.789 148.451 151.175  0.00  0.00     0.007 A 
ENDBRANCH   3  21
BRANCH   1  27
HETATM   27  C   UNK N   1     170.182 147.593 156.127  0.00  0.00     0.264 C 
HETATM   28  O   UNK N   1     170.794 146.752 155.478  0.00  0.00    -0.265 OA
BRANCH  27  29
HETATM   29  O   UNK N   1     169.376 147.212 157.147  0.00  0.00    -0.326 OA
HETATM   30  C   UNK N   1     168.874 145.934 157.241  0.00  0.00     0.213 C 
ENDBRANCH  27  29
ENDBRANCH   1  27
TORSDOF 5
ENDMDL
MODEL 5
REMARK VINA RESULT:      -6.6      3.357      8.081
REMARK  5 active torsions:
REMARK  status: ('A' for Active; 'I' for Inactive)
REMARK    1  A    between atoms: O_2  and  C_3 
REMARK    2  A    between atoms: C_5  and  C_3 
REMARK    3  A    between atoms: C_7  and  C_8 
REMARK       I    between atoms: N_15  and  C_16 
REMARK    4  A    between atoms: C_16  and  C_18 
REMARK    5  A    between atoms: C_18  and  N_19 
ROOT
HETATM    1  C   UNK N   1     167.035 155.039 155.159  0.00  0.00     0.104 C 
HETATM    2  C   UNK N   1     167.561 156.124 156.111  0.00  0.00     0.027 C 
HETATM    3  C   UNK N   1     166.506 157.223 156.280  0.00  0.00     0.037 C 
HETATM    4  C   UNK N   1     165.294 156.640 157.012  0.00  0.00     0.135 C 
HETATM    5  N   UNK N   1     165.100 155.237 156.687  0.00  0.00    -0.349 N 
HETATM    6  C   UNK N   1     164.571 154.392 157.616  0.00  0.00     0.239 C 
HETATM    7  O   UNK N   1     164.439 153.203 157.361  0.00  0.00    -0.271 OA
HETATM    8  C   UNK N   1     165.537 154.742 155.392  0.00  0.00     0.140 C 
ENDROOT
BRANCH   6   9
HETATM    9  C   UNK N   1     164.149 154.923 158.968  0.00  0.00     0.257 C 
BRANCH   9  10
HETATM   10  N   UNK N   1     162.799 155.462 158.942  0.00  0.00    -0.232 N 
HETATM   11  N   UNK N   1     161.994 155.419 157.885  0.00  0.00    -0.278 N 
HETATM   12  C   UNK N   1     160.840 156.010 158.266  0.00  0.00     0.130 A 
ATOM     13  HN  UNK N   1     162.205 155.020 156.970  1.00  0.00     0.189 HD
HETATM   14  C   UNK N   1     159.698 156.190 157.497  0.00  0.00     0.050 A 
HETATM   15  N   UNK N   1     160.897 156.431 159.543  0.00  0.00    -0.258 N 
HETATM   16  C   UNK N   1     158.606 156.829 158.107  0.00  0.00     0.005 A 
HETATM   17  C   UNK N   1     158.689 157.265 159.449  0.00  0.00     0.018 A 
HETATM   18  C   UNK N   1     159.872 157.053 160.173  0.00  0.00     0.103 A 
HETATM   19  C   UNK N   1     162.135 156.080 159.951  0.00  0.00     0.349 A 
HETATM   20  O   UNK N   1     162.588 156.287 161.064  0.00  0.00    -0.244 OA
ENDBRANCH   9  10
ENDBRANCH   6   9
BRANCH   3  21
HETATM   21  C   UNK N   1     167.034 158.455 156.965  0.00  0.00    -0.052 A 
HETATM   22  C   UNK N   1     167.989 158.325 157.982  0.00  0.00     0.007 A 
HETATM   23  C   UNK N   1     168.479 159.457 158.638  0.00  0.00     0.001 A 
HETATM   24  C   UNK N   1     168.003 160.725 158.296  0.00  0.00     0.000 A 
HETATM   25  C   UNK N   1     167.042 160.864 157.292  0.00  0.00     0.001 A 
HETATM   26  C   UNK N   1     166.562 159.734 156.626  0.00  0.00     0.007 A 
ENDBRANCH   3  21
BRANCH   1  27
HETATM   27  C   UNK N   1     167.276 155.418 153.720  0.00  0.00     0.264 C 
HETATM   28  O   UNK N   1     166.365 155.880 153.042  0.00  0.00    -0.265 OA
BRANCH  27  29
HETATM   29  O   UNK N   1     168.511 155.262 153.186  0.00  0.00    -0.326 OA
HETATM   30  C   UNK N   1     169.321 154.201 153.521  0.00  0.00     0.213 C 
ENDBRANCH  27  29
ENDBRANCH   1  27
TORSDOF 5
ENDMDL
MODEL 6
REMARK VINA RESULT:      -6.6      3.729      7.997
REMARK  5 active torsions:
REMARK  status: ('A' for Active; 'I' for Inactive)
REMARK    1  A    between atoms: O_2  and  C_3 
REMARK    2  A    between atoms: C_5  and  C_3 
REMARK    3  A    between atoms: C_7  and  C_8 
REMARK       I    between atoms: N_15  and  C_16 
REMARK    4  A    between atoms: C_16  and  C_18 
REMARK    5  A    between atoms: C_18  and  N_19 
ROOT
HETATM    1  C   UNK N   1     166.934 154.547 156.399  0.00  0.00     0.104 C 
HETATM    2  C   UNK N   1     166.857 155.906 157.110  0.00  0.00     0.027 C 
HETATM    3  C   UNK N   1     166.476 156.998 156.106  0.00  0.00     0.037 C 
HETATM    4  C   UNK N   1     165.046 156.750 155.619  0.00  0.00     0.135 C 
HETATM    5  N   UNK N   1     164.736 155.330 155.579  0.00  0.00    -0.349 N 
HETATM    6  C   UNK N   1     163.463 154.906 155.813  0.00  0.00     0.239 C 
HETATM    7  O   UNK N   1     163.204 153.710 155.815  0.00  0.00    -0.271 OA
HETATM    8  C   UNK N   1     165.811 154.377 155.353  0.00  0.00     0.140 C 
ENDROOT
BRANCH   6   9
HETATM    9  C   UNK N   1     162.366 155.914 156.072  0.00  0.00     0.257 C 
BRANCH   9  10
HETATM   10  N   UNK N   1     161.823 155.792 157.415  0.00  0.00    -0.232 N 
HETATM   11  N   UNK N   1     162.467 155.239 158.438  0.00  0.00    -0.278 N 
HETATM   12  C   UNK N   1     161.636 155.329 159.499  0.00  0.00     0.130 A 
ATOM     13  HN  UNK N   1     163.401 154.828 158.423  1.00  0.00     0.189 HD
HETATM   14  C   UNK N   1     161.882 154.891 160.794  0.00  0.00     0.050 A 
HETATM   15  N   UNK N   1     160.476 155.926 159.171  0.00  0.00    -0.258 N 
HETATM   16  C   UNK N   1     160.869 155.098 161.746  0.00  0.00     0.005 A 
HETATM   17  C   UNK N   1     159.658 155.725 161.378  0.00  0.00     0.018 A 
HETATM   18  C   UNK N   1     159.471 156.145 160.052  0.00  0.00     0.103 A 
HETATM   19  C   UNK N   1     160.610 156.208 157.858  0.00  0.00     0.349 A 
HETATM   20  O   UNK N   1     159.765 156.759 157.172  0.00  0.00    -0.244 OA
ENDBRANCH   9  10
ENDBRANCH   6   9
BRANCH   3  21
HETATM   21  C   UNK N   1     166.648 158.392 156.647  0.00  0.00    -0.052 A 
HETATM   22  C   UNK N   1     165.996 159.463 156.020  0.00  0.00     0.007 A 
HETATM   23  C   UNK N   1     166.156 160.765 156.500  0.00  0.00     0.001 A 
HETATM   24  C   UNK N   1     166.985 161.009 157.598  0.00  0.00     0.000 A 
HETATM   25  C   UNK N   1     167.649 159.951 158.222  0.00  0.00     0.001 A 
HETATM   26  C   UNK N   1     167.479 158.647 157.751  0.00  0.00     0.007 A 
ENDBRANCH   3  21
BRANCH   1  27
HETATM   27  C   UNK N   1     168.283 154.350 155.754  0.00  0.00     0.264 C 
HETATM   28  O   UNK N   1     168.622 153.241 155.358  0.00  0.00    -0.265 OA
BRANCH  27  29
HETATM   29  O   UNK N   1     169.111 155.411 155.600  0.00  0.00    -0.326 OA
HETATM   30  C   UNK N   1     169.417 155.922 154.359  0.00  0.00     0.213 C 
ENDBRANCH  27  29
ENDBRANCH   1  27
TORSDOF 5
ENDMDL
MODEL 7
REMARK VINA RESULT:      -6.5      2.971      4.901
REMARK  5 active torsions:
REMARK  status: ('A' for Active; 'I' for Inactive)
REMARK    1  A    between atoms: O_2  and  C_3 
REMARK    2  A    between atoms: C_5  and  C_3 
REMARK    3  A    between atoms: C_7  and  C_8 
REMARK       I    between atoms: N_15  and  C_16 
REMARK    4  A    between atoms: C_16  and  C_18 
REMARK    5  A    between atoms: C_18  and  N_19 
ROOT
HETATM    1  C   UNK N   1     164.026 155.430 157.659  0.00  0.00     0.104 C 
HETATM    2  C   UNK N   1     164.540 156.798 157.185  0.00  0.00     0.027 C 
HETATM    3  C   UNK N   1     165.895 157.099 157.834  0.00  0.00     0.037 C 
HETATM    4  C   UNK N   1     166.932 156.105 157.305  0.00  0.00     0.135 C 
HETATM    5  N   UNK N   1     166.332 154.815 157.011  0.00  0.00    -0.349 N 
HETATM    6  C   UNK N   1     166.830 154.049 156.000  0.00  0.00     0.239 C 
HETATM    7  O   UNK N   1     166.306 152.978 155.725  0.00  0.00    -0.271 OA
HETATM    8  C   UNK N   1     165.162 154.390 157.763  0.00  0.00     0.140 C 
ENDROOT
BRANCH   6   9
HETATM    9  C   UNK N   1     168.031 154.523 155.213  0.00  0.00     0.257 C 
BRANCH   9  10
HETATM   10  N   UNK N   1     167.885 154.263 153.790  0.00  0.00    -0.232 N 
HETATM   11  N   UNK N   1     168.348 153.180 153.174  0.00  0.00    -0.278 N 
HETATM   12  C   UNK N   1     168.003 153.312 151.874  0.00  0.00     0.130 A 
ATOM     13  HN  UNK N   1     168.861 152.408 153.597  1.00  0.00     0.189 HD
HETATM   14  C   UNK N   1     168.266 152.417 150.844  0.00  0.00     0.050 A 
HETATM   15  N   UNK N   1     167.333 154.457 151.651  0.00  0.00    -0.258 N 
HETATM   16  C   UNK N   1     167.803 152.759 149.562  0.00  0.00     0.005 A 
HETATM   17  C   UNK N   1     167.103 153.967 149.352  0.00  0.00     0.018 A 
HETATM   18  C   UNK N   1     166.868 154.829 150.435  0.00  0.00     0.103 A 
HETATM   19  C   UNK N   1     167.269 155.042 152.865  0.00  0.00     0.349 A 
HETATM   20  O   UNK N   1     166.734 156.114 153.097  0.00  0.00    -0.244 OA
ENDBRANCH   9  10
ENDBRANCH   6   9
BRANCH   3  21
HETATM   21  C   UNK N   1     166.341 158.525 157.650  0.00  0.00    -0.052 A 
HETATM   22  C   UNK N   1     165.708 159.329 156.693  0.00  0.00     0.007 A 
HETATM   23  C   UNK N   1     166.119 160.650 156.499  0.00  0.00     0.001 A 
HETATM   24  C   UNK N   1     167.178 161.171 157.246  0.00  0.00     0.000 A 
HETATM   25  C   UNK N   1     167.823 160.373 158.194  0.00  0.00     0.001 A 
HETATM   26  C   UNK N   1     167.405 159.056 158.398  0.00  0.00     0.007 A 
ENDBRANCH   3  21
BRANCH   1  27
HETATM   27  C   UNK N   1     163.306 155.552 158.979  0.00  0.00     0.264 C 
HETATM   28  O   UNK N   1     163.675 154.896 159.946  0.00  0.00    -0.265 OA
BRANCH  27  29
HETATM   29  O   UNK N   1     162.260 156.405 159.092  0.00  0.00    -0.326 OA
HETATM   30  C   UNK N   1     160.956 155.966 159.073  0.00  0.00     0.213 C 
ENDBRANCH  27  29
ENDBRANCH   1  27
TORSDOF 5
ENDMDL
MODEL 8
REMARK VINA RESULT:      -6.3      1.803      2.434
REMARK  5 active torsions:
REMARK  status: ('A' for Active; 'I' for Inactive)
REMARK    1  A    between atoms: O_2  and  C_3 
REMARK    2  A    between atoms: C_5  and  C_3 
REMARK    3  A    between atoms: C_7  and  C_8 
REMARK       I    between atoms: N_15  and  C_16 
REMARK    4  A    between atoms: C_16  and  C_18 
REMARK    5  A    between atoms: C_18  and  N_19 
ROOT
HETATM    1  C   UNK N   1     166.453 158.914 156.595  0.00  0.00     0.104 C 
HETATM    2  C   UNK N   1     165.465 158.029 157.370  0.00  0.00     0.027 C 
HETATM    3  C   UNK N   1     164.226 157.755 156.511  0.00  0.00     0.037 C 
HETATM    4  C   UNK N   1     164.634 156.897 155.310  0.00  0.00     0.135 C 
HETATM    5  N   UNK N   1     165.991 157.192 154.881  0.00  0.00    -0.349 N 
HETATM    6  C   UNK N   1     166.759 156.208 154.335  0.00  0.00     0.239 C 
HETATM    7  O   UNK N   1     167.914 156.441 154.005  0.00  0.00    -0.271 OA
HETATM    8  C   UNK N   1     166.530 158.524 155.103  0.00  0.00     0.140 C 
ENDROOT
BRANCH   6   9
HETATM    9  C   UNK N   1     166.186 154.822 154.138  0.00  0.00     0.257 C 
BRANCH   9  10
HETATM   10  N   UNK N   1     167.198 153.790 154.284  0.00  0.00    -0.232 N 
HETATM   11  N   UNK N   1     167.953 153.332 153.290  0.00  0.00    -0.278 N 
HETATM   12  C   UNK N   1     168.765 152.399 153.833  0.00  0.00     0.130 A 
ATOM     13  HN  UNK N   1     167.923 153.626 152.314  1.00  0.00     0.189 HD
HETATM   14  C   UNK N   1     169.735 151.651 153.178  0.00  0.00     0.050 A 
HETATM   15  N   UNK N   1     168.540 152.252 155.151  0.00  0.00    -0.258 N 
HETATM   16  C   UNK N   1     170.472 150.737 153.950  0.00  0.00     0.005 A 
HETATM   17  C   UNK N   1     170.218 150.598 155.333  0.00  0.00     0.018 A 
HETATM   18  C   UNK N   1     169.223 151.384 155.936  0.00  0.00     0.103 A 
HETATM   19  C   UNK N   1     167.553 153.132 155.417  0.00  0.00     0.349 A 
HETATM   20  O   UNK N   1     167.053 153.311 156.516  0.00  0.00    -0.244 OA
ENDBRANCH   9  10
ENDBRANCH   6   9
BRANCH   3  21
HETATM   21  C   UNK N   1     163.091 157.137 157.281  0.00  0.00    -0.052 A 
HETATM   22  C   UNK N   1     161.843 156.975 156.663  0.00  0.00     0.007 A 
HETATM   23  C   UNK N   1     160.774 156.416 157.368  0.00  0.00     0.001 A 
HETATM   24  C   UNK N   1     160.939 156.032 158.701  0.00  0.00     0.000 A 
HETATM   25  C   UNK N   1     162.175 156.200 159.329  0.00  0.00     0.001 A 
HETATM   26  C   UNK N   1     163.248 156.747 158.622  0.00  0.00     0.007 A 
ENDBRANCH   3  21
BRANCH   1  27
HETATM   27  C   UNK N   1     166.098 160.372 156.737  0.00  0.00     0.264 C 
HETATM   28  O   UNK N   1     165.778 161.028 155.752  0.00  0.00    -0.265 OA
BRANCH  27  29
HETATM   29  O   UNK N   1     166.118 160.948 157.963  0.00  0.00    -0.326 OA
HETATM   30  C   UNK N   1     167.290 161.138 158.660  0.00  0.00     0.213 C 
ENDBRANCH  27  29
ENDBRANCH   1  27
TORSDOF 5
ENDMDL
MODEL 9
REMARK VINA RESULT:      -6.3      7.207     10.130
REMARK  5 active torsions:
REMARK  status: ('A' for Active; 'I' for Inactive)
REMARK    1  A    between atoms: O_2  and  C_3 
REMARK    2  A    between atoms: C_5  and  C_3 
REMARK    3  A    between atoms: C_7  and  C_8 
REMARK       I    between atoms: N_15  and  C_16 
REMARK    4  A    between atoms: C_16  and  C_18 
REMARK    5  A    between atoms: C_18  and  N_19 
ROOT
HETATM    1  C   UNK N   1     155.835 159.540 156.378  0.00  0.00     0.104 C 
HETATM    2  C   UNK N   1     155.250 158.822 157.604  0.00  0.00     0.027 C 
HETATM    3  C   UNK N   1     155.397 157.306 157.439  0.00  0.00     0.037 C 
HETATM    4  C   UNK N   1     156.885 156.945 157.470  0.00  0.00     0.135 C 
HETATM    5  N   UNK N   1     157.702 158.005 156.903  0.00  0.00    -0.349 N 
HETATM    6  C   UNK N   1     158.962 158.217 157.374  0.00  0.00     0.239 C 
HETATM    7  O   UNK N   1     159.641 159.131 156.924  0.00  0.00    -0.271 OA
HETATM    8  C   UNK N   1     157.133 158.867 155.879  0.00  0.00     0.140 C 
ENDROOT
BRANCH   6   9
HETATM    9  C   UNK N   1     159.525 157.325 158.457  0.00  0.00     0.257 C 
BRANCH   9  10
HETATM   10  N   UNK N   1     160.686 156.581 157.999  0.00  0.00    -0.232 N 
HETATM   11  N   UNK N   1     160.868 156.167 156.749  0.00  0.00    -0.278 N 
HETATM   12  C   UNK N   1     162.059 155.530 156.733  0.00  0.00     0.130 A 
ATOM     13  HN  UNK N   1     160.234 156.302 155.962  1.00  0.00     0.189 HD
HETATM   14  C   UNK N   1     162.674 154.936 155.638  0.00  0.00     0.050 A 
HETATM   15  N   UNK N   1     162.637 155.528 157.947  0.00  0.00    -0.258 N 
HETATM   16  C   UNK N   1     163.926 154.333 155.854  0.00  0.00     0.005 A 
HETATM   17  C   UNK N   1     164.513 154.341 157.138  0.00  0.00     0.018 A 
HETATM   18  C   UNK N   1     163.840 154.960 158.204  0.00  0.00     0.103 A 
HETATM   19  C   UNK N   1     161.761 156.190 158.730  0.00  0.00     0.349 A 
HETATM   20  O   UNK N   1     161.914 156.408 159.921  0.00  0.00    -0.244 OA
ENDBRANCH   9  10
ENDBRANCH   6   9
BRANCH   3  21
HETATM   21  C   UNK N   1     154.609 156.517 158.450  0.00  0.00    -0.052 A 
HETATM   22  C   UNK N   1     154.785 156.774 159.817  0.00  0.00     0.007 A 
HETATM   23  C   UNK N   1     154.072 156.041 160.769  0.00  0.00     0.001 A 
HETATM   24  C   UNK N   1     153.194 155.032 160.363  0.00  0.00     0.000 A 
HETATM   25  C   UNK N   1     153.022 154.761 159.004  0.00  0.00     0.001 A 
HETATM   26  C   UNK N   1     153.724 155.502 158.051  0.00  0.00     0.007 A 
ENDBRANCH   3  21
BRANCH   1  27
HETATM   27  C   UNK N   1     154.823 159.616 155.262  0.00  0.00     0.264 C 
HETATM   28  O   UNK N   1     154.959 158.927 154.257  0.00  0.00    -0.265 OA
BRANCH  27  29
HETATM   29  O   UNK N   1     153.753 160.437 155.386  0.00  0.00    -0.326 OA
HETATM   30  C   UNK N   1     153.839 161.788 155.138  0.00  0.00     0.213 C 
ENDBRANCH  27  29
ENDBRANCH   1  27
TORSDOF 5
ENDMDL
