MODEL 1
REMARK VINA RESULT:      -6.6      0.000      0.000
REMARK  5 active torsions:
REMARK  status: ('A' for Active; 'I' for Inactive)
REMARK    1  A    between atoms: C_2  and  C_3 
REMARK    2  A    between atoms: C_2  and  N_20 
REMARK       I    between atoms: C_3  and  N_5 
REMARK    3  A    between atoms: C_12  and  C_13 
REMARK    4  A    between atoms: C_24  and  C_26 
REMARK    5  A    between atoms: C_26  and  O_27 
ROOT
HETATM    1  C   UNK N   1     166.915 154.081 156.584  0.00  0.00     0.258 C 
HETATM    2  O   UNK N   1     167.737 154.052 157.489  0.00  0.00    -0.271 OA
HETATM    3  N   UNK N   1     165.588 154.373 156.841  0.00  0.00    -0.305 N 
HETATM    4  C   UNK N   1     164.674 154.410 155.701  0.00  0.00     0.235 C 
HETATM    5  C   UNK N   1     163.213 154.472 156.034  0.00  0.00     0.240 C 
HETATM    6  O   UNK N   1     162.398 154.430 155.128  0.00  0.00    -0.271 OA
HETATM    7  N   UNK N   1     162.784 154.564 157.308  0.00  0.00    -0.324 N 
HETATM    8  C   UNK N   1     163.681 154.630 158.394  0.00  0.00     0.062 A 
HETATM    9  C   UNK N   1     163.162 154.730 159.686  0.00  0.00     0.048 A 
HETATM   10  C   UNK N   1     164.010 154.787 160.793  0.00  0.00     0.050 A 
HETATM   11  C   UNK N   1     165.395 154.758 160.598  0.00  0.00     0.018 A 
HETATM   12  C   UNK N   1     165.920 154.641 159.307  0.00  0.00     0.033 A 
HETATM   13  C   UNK N   1     165.074 154.565 158.182  0.00  0.00     0.064 A 
HETATM   14  H   UNK N   1     161.816 154.585 157.486  0.00  0.00     0.169 HD
ENDROOT
BRANCH   1  15
HETATM   15  C   UNK N   1     167.371 153.714 155.170  0.00  0.00     0.310 C 
HETATM   16  C   UNK N   1     168.017 152.325 155.248  0.00  0.00     0.053 C 
BRANCH  15  17
HETATM   17  N   UNK N   1     168.323 154.695 154.602  0.00  0.00     0.102 N 
HETATM   18  C   UNK N   1     168.473 154.541 153.141  0.00  0.00     0.273 C 
HETATM   19  C   UNK N   1     167.172 154.851 152.386  0.00  0.00     0.031 C 
HETATM   20  C   UNK N   1     166.454 156.086 152.940  0.00  0.00     0.015 C 
HETATM   21  C   UNK N   1     167.354 156.936 153.840  0.00  0.00     0.004 C 
HETATM   22  C   UNK N   1     168.492 157.534 153.023  0.00  0.00     0.019 C 
HETATM   23  C   UNK N   1     167.918 156.068 154.984  0.00  0.00     0.284 C 
BRANCH  21  24
HETATM   24  C   UNK N   1     166.562 158.098 154.422  0.00  0.00     0.175 C 
BRANCH  24  25
HETATM   25  O   UNK N   1     165.878 158.794 153.422  0.00  0.00    -0.400 OA
HETATM   26  H   UNK N   1     166.484 158.986 152.689  0.00  0.00     0.209 HD
ENDBRANCH  24  25
ENDBRANCH  21  24
ENDBRANCH  15  17
ENDBRANCH   1  15
BRANCH  10  27
HETATM   27  C   UNK N   1     163.419 154.851 162.172  0.00  0.00     0.417 C 
HETATM   28  F   UNK N   1     163.996 153.912 163.009  0.00  0.00    -0.166 F 
HETATM   29  F   UNK N   1     162.060 154.602 162.097  0.00  0.00    -0.166 F 
HETATM   30  F   UNK N   1     163.615 156.110 162.709  0.00  0.00    -0.166 F 
ENDBRANCH  10  27
TORSDOF 5
ENDMDL
MODEL 2
REMARK VINA RESULT:      -6.5      5.737      8.325
REMARK  5 active torsions:
REMARK  status: ('A' for Active; 'I' for Inactive)
REMARK    1  A    between atoms: C_2  and  C_3 
REMARK    2  A    between atoms: C_2  and  N_20 
REMARK       I    between atoms: C_3  and  N_5 
REMARK    3  A    between atoms: C_12  and  C_13 
REMARK    4  A    between atoms: C_24  and  C_26 
REMARK    5  A    between atoms: C_26  and  O_27 
ROOT
HETATM    1  C   UNK N   1     168.255 154.670 153.327  0.00  0.00     0.258 C 
HETATM    2  O   UNK N   1     168.940 154.121 154.177  0.00  0.00    -0.271 OA
HETATM    3  N   UNK N   1     167.887 154.002 152.173  0.00  0.00    -0.305 N 
HETATM    4  C   UNK N   1     167.048 154.721 151.217  0.00  0.00     0.235 C 
HETATM    5  C   UNK N   1     166.882 154.075 149.874  0.00  0.00     0.240 C 
HETATM    6  O   UNK N   1     166.255 154.661 149.008  0.00  0.00    -0.271 OA
HETATM    7  N   UNK N   1     167.417 152.867 149.602  0.00  0.00    -0.324 N 
HETATM    8  C   UNK N   1     168.139 152.137 150.568  0.00  0.00     0.062 A 
HETATM    9  C   UNK N   1     168.658 150.891 150.215  0.00  0.00     0.048 A 
HETATM   10  C   UNK N   1     169.389 150.136 151.133  0.00  0.00     0.050 A 
HETATM   11  C   UNK N   1     169.588 150.634 152.425  0.00  0.00     0.018 A 
HETATM   12  C   UNK N   1     169.085 151.890 152.779  0.00  0.00     0.033 A 
HETATM   13  C   UNK N   1     168.360 152.669 151.855  0.00  0.00     0.064 A 
HETATM   14  H   UNK N   1     167.300 152.485 148.703  0.00  0.00     0.169 HD
ENDROOT
BRANCH   1  15
HETATM   15  C   UNK N   1     167.874 156.138 153.530  0.00  0.00     0.310 C 
HETATM   16  C   UNK N   1     169.154 156.967 153.366  0.00  0.00     0.053 C 
BRANCH  15  17
HETATM   17  N   UNK N   1     167.260 156.392 154.853  0.00  0.00     0.102 N 
HETATM   18  C   UNK N   1     166.953 157.822 155.057  0.00  0.00     0.273 C 
HETATM   19  C   UNK N   1     165.882 158.332 154.081  0.00  0.00     0.031 C 
HETATM   20  C   UNK N   1     164.732 157.335 153.901  0.00  0.00     0.015 C 
HETATM   21  C   UNK N   1     164.710 156.258 154.990  0.00  0.00     0.004 C 
HETATM   22  C   UNK N   1     164.412 156.892 156.343  0.00  0.00     0.019 C 
HETATM   23  C   UNK N   1     166.069 155.530 155.030  0.00  0.00     0.284 C 
BRANCH  21  24
HETATM   24  C   UNK N   1     163.600 155.256 154.710  0.00  0.00     0.175 C 
BRANCH  24  25
HETATM   25  O   UNK N   1     163.802 154.068 155.418  0.00  0.00    -0.400 OA
HETATM   26  H   UNK N   1     164.292 153.440 154.863  0.00  0.00     0.209 HD
ENDBRANCH  24  25
ENDBRANCH  21  24
ENDBRANCH  15  17
ENDBRANCH   1  15
BRANCH  10  27
HETATM   27  C   UNK N   1     169.971 148.818 150.708  0.00  0.00     0.417 C 
HETATM   28  F   UNK N   1     170.722 148.251 151.722  0.00  0.00    -0.166 F 
HETATM   29  F   UNK N   1     170.787 149.014 149.608  0.00  0.00    -0.166 F 
HETATM   30  F   UNK N   1     168.954 147.946 150.363  0.00  0.00    -0.166 F 
ENDBRANCH  10  27
TORSDOF 5
ENDMDL
MODEL 3
REMARK VINA RESULT:      -6.5      4.805      7.312
REMARK  5 active torsions:
REMARK  status: ('A' for Active; 'I' for Inactive)
REMARK    1  A    between atoms: C_2  and  C_3 
REMARK    2  A    between atoms: C_2  and  N_20 
REMARK       I    between atoms: C_3  and  N_5 
REMARK    3  A    between atoms: C_12  and  C_13 
REMARK    4  A    between atoms: C_24  and  C_26 
REMARK    5  A    between atoms: C_26  and  O_27 
ROOT
HETATM    1  C   UNK N   1     167.365 154.340 156.149  0.00  0.00     0.258 C 
HETATM    2  O   UNK N   1     167.644 153.680 157.139  0.00  0.00    -0.271 OA
HETATM    3  N   UNK N   1     167.591 153.842 154.878  0.00  0.00    -0.305 N 
HETATM    4  C   UNK N   1     167.209 154.685 153.747  0.00  0.00     0.235 C 
HETATM    5  C   UNK N   1     167.696 154.238 152.401  0.00  0.00     0.240 C 
HETATM    6  O   UNK N   1     167.474 154.938 151.429  0.00  0.00    -0.271 OA
HETATM    7  N   UNK N   1     168.381 153.087 152.247  0.00  0.00    -0.324 N 
HETATM    8  C   UNK N   1     168.655 152.231 153.333  0.00  0.00     0.062 A 
HETATM    9  C   UNK N   1     169.364 151.053 153.095  0.00  0.00     0.048 A 
HETATM   10  C   UNK N   1     169.669 150.179 154.140  0.00  0.00     0.050 A 
HETATM   11  C   UNK N   1     169.243 150.487 155.437  0.00  0.00     0.018 A 
HETATM   12  C   UNK N   1     168.548 151.675 155.684  0.00  0.00     0.033 A 
HETATM   13  C   UNK N   1     168.248 152.573 154.640  0.00  0.00     0.064 A 
HETATM   14  H   UNK N   1     168.698 152.837 151.350  0.00  0.00     0.169 HD
ENDROOT
BRANCH   1  15
HETATM   15  C   UNK N   1     166.829 155.760 156.344  0.00  0.00     0.310 C 
HETATM   16  C   UNK N   1     167.970 156.599 156.935  0.00  0.00     0.053 C 
BRANCH  15  17
HETATM   17  N   UNK N   1     165.642 155.808 157.226  0.00  0.00     0.102 N 
HETATM   18  C   UNK N   1     165.079 157.170 157.326  0.00  0.00     0.273 C 
HETATM   19  C   UNK N   1     164.527 157.672 155.983  0.00  0.00     0.031 C 
HETATM   20  C   UNK N   1     163.744 156.590 155.231  0.00  0.00     0.015 C 
HETATM   21  C   UNK N   1     163.368 155.406 156.127  0.00  0.00     0.004 C 
HETATM   22  C   UNK N   1     162.389 155.858 157.203  0.00  0.00     0.019 C 
HETATM   23  C   UNK N   1     164.638 154.817 156.774  0.00  0.00     0.284 C 
BRANCH  21  24
HETATM   24  C   UNK N   1     162.667 154.333 155.305  0.00  0.00     0.175 C 
BRANCH  24  25
HETATM   25  O   UNK N   1     162.898 153.061 155.835  0.00  0.00    -0.400 OA
HETATM   26  H   UNK N   1     163.066 152.435 155.112  0.00  0.00     0.209 HD
ENDBRANCH  24  25
ENDBRANCH  21  24
ENDBRANCH  15  17
ENDBRANCH   1  15
BRANCH  10  27
HETATM   27  C   UNK N   1     170.470 148.941 153.856  0.00  0.00     0.417 C 
HETATM   28  F   UNK N   1     169.649 147.840 153.689  0.00  0.00    -0.166 F 
HETATM   29  F   UNK N   1     171.325 148.699 154.917  0.00  0.00    -0.166 F 
HETATM   30  F   UNK N   1     171.219 149.120 152.708  0.00  0.00    -0.166 F 
ENDBRANCH  10  27
TORSDOF 5
ENDMDL
MODEL 4
REMARK VINA RESULT:      -6.3      4.819      7.008
REMARK  5 active torsions:
REMARK  status: ('A' for Active; 'I' for Inactive)
REMARK    1  A    between atoms: C_2  and  C_3 
REMARK    2  A    between atoms: C_2  and  N_20 
REMARK       I    between atoms: C_3  and  N_5 
REMARK    3  A    between atoms: C_12  and  C_13 
REMARK    4  A    between atoms: C_24  and  C_26 
REMARK    5  A    between atoms: C_26  and  O_27 
ROOT
HETATM    1  C   UNK N   1     167.670 154.997 157.066  0.00  0.00     0.258 C 
HETATM    2  O   UNK N   1     167.304 154.010 157.688  0.00  0.00    -0.271 OA
HETATM    3  N   UNK N   1     168.127 154.886 155.765  0.00  0.00    -0.305 N 
HETATM    4  C   UNK N   1     168.523 156.117 155.084  0.00  0.00     0.235 C 
HETATM    5  C   UNK N   1     169.250 155.942 153.784  0.00  0.00     0.240 C 
HETATM    6  O   UNK N   1     169.672 156.928 153.205  0.00  0.00    -0.271 OA
HETATM    7  N   UNK N   1     169.453 154.722 153.249  0.00  0.00    -0.324 N 
HETATM    8  C   UNK N   1     168.975 153.548 153.867  0.00  0.00     0.062 A 
HETATM    9  C   UNK N   1     169.219 152.320 153.250  0.00  0.00     0.048 A 
HETATM   10  C   UNK N   1     168.775 151.129 153.829  0.00  0.00     0.050 A 
HETATM   11  C   UNK N   1     168.066 151.177 155.034  0.00  0.00     0.018 A 
HETATM   12  C   UNK N   1     167.834 152.403 155.665  0.00  0.00     0.033 A 
HETATM   13  C   UNK N   1     168.292 153.610 155.099  0.00  0.00     0.064 A 
HETATM   14  H   UNK N   1     169.949 154.648 152.403  0.00  0.00     0.169 HD
ENDROOT
BRANCH   1  15
HETATM   15  C   UNK N   1     167.681 156.349 157.782  0.00  0.00     0.310 C 
HETATM   16  C   UNK N   1     168.486 156.172 159.075  0.00  0.00     0.053 C 
BRANCH  15  17
HETATM   17  N   UNK N   1     166.321 156.848 158.085  0.00  0.00     0.102 N 
HETATM   18  C   UNK N   1     166.338 158.238 158.585  0.00  0.00     0.273 C 
HETATM   19  C   UNK N   1     166.837 159.232 157.526  0.00  0.00     0.031 C 
HETATM   20  C   UNK N   1     166.264 158.942 156.135  0.00  0.00     0.015 C 
HETATM   21  C   UNK N   1     165.060 157.998 156.180  0.00  0.00     0.004 C 
HETATM   22  C   UNK N   1     163.898 158.669 156.902  0.00  0.00     0.019 C 
HETATM   23  C   UNK N   1     165.449 156.689 156.898  0.00  0.00     0.284 C 
BRANCH  21  24
HETATM   24  C   UNK N   1     164.589 157.685 154.766  0.00  0.00     0.175 C 
BRANCH  24  25
HETATM   25  O   UNK N   1     165.295 158.435 153.822  0.00  0.00    -0.400 OA
HETATM   26  H   UNK N   1     164.896 159.318 153.746  0.00  0.00     0.209 HD
ENDBRANCH  24  25
ENDBRANCH  21  24
ENDBRANCH  15  17
ENDBRANCH   1  15
BRANCH  10  27
HETATM   27  C   UNK N   1     169.091 149.822 153.161  0.00  0.00     0.417 C 
HETATM   28  F   UNK N   1     168.118 148.875 153.429  0.00  0.00    -0.166 F 
HETATM   29  F   UNK N   1     170.306 149.354 153.629  0.00  0.00    -0.166 F 
HETATM   30  F   UNK N   1     169.175 150.003 151.793  0.00  0.00    -0.166 F 
ENDBRANCH  10  27
TORSDOF 5
ENDMDL
MODEL 5
REMARK VINA RESULT:      -6.1      3.059      3.843
REMARK  5 active torsions:
REMARK  status: ('A' for Active; 'I' for Inactive)
REMARK    1  A    between atoms: C_2  and  C_3 
REMARK    2  A    between atoms: C_2  and  N_20 
REMARK       I    between atoms: C_3  and  N_5 
REMARK    3  A    between atoms: C_12  and  C_13 
REMARK    4  A    between atoms: C_24  and  C_26 
REMARK    5  A    between atoms: C_26  and  O_27 
ROOT
HETATM    1  C   UNK N   1     164.593 155.976 157.788  0.00  0.00     0.258 C 
HETATM    2  O   UNK N   1     164.679 156.715 158.758  0.00  0.00    -0.271 OA
HETATM    3  N   UNK N   1     163.376 155.755 157.170  0.00  0.00    -0.305 N 
HETATM    4  C   UNK N   1     163.363 154.877 156.002  0.00  0.00     0.235 C 
HETATM    5  C   UNK N   1     162.010 154.454 155.514  0.00  0.00     0.240 C 
HETATM    6  O   UNK N   1     161.935 153.663 154.590  0.00  0.00    -0.271 OA
HETATM    7  N   UNK N   1     160.879 154.921 156.080  0.00  0.00    -0.324 N 
HETATM    8  C   UNK N   1     160.905 155.848 157.142  0.00  0.00     0.062 A 
HETATM    9  C   UNK N   1     159.693 156.291 157.673  0.00  0.00     0.048 A 
HETATM   10  C   UNK N   1     159.667 157.200 158.733  0.00  0.00     0.050 A 
HETATM   11  C   UNK N   1     160.874 157.679 159.253  0.00  0.00     0.018 A 
HETATM   12  C   UNK N   1     162.092 157.226 158.736  0.00  0.00     0.033 A 
HETATM   13  C   UNK N   1     162.131 156.295 157.678  0.00  0.00     0.064 A 
HETATM   14  H   UNK N   1     160.011 154.605 155.742  0.00  0.00     0.169 HD
ENDROOT
BRANCH   1  15
HETATM   15  C   UNK N   1     165.850 155.241 157.315  0.00  0.00     0.310 C 
HETATM   16  C   UNK N   1     166.460 154.550 158.541  0.00  0.00     0.053 C 
BRANCH  15  17
HETATM   17  N   UNK N   1     166.839 156.145 156.686  0.00  0.00     0.102 N 
HETATM   18  C   UNK N   1     167.928 155.400 156.023  0.00  0.00     0.273 C 
HETATM   19  C   UNK N   1     167.424 154.567 154.835  0.00  0.00     0.031 C 
HETATM   20  C   UNK N   1     166.404 155.325 153.979  0.00  0.00     0.015 C 
HETATM   21  C   UNK N   1     166.402 156.830 154.262  0.00  0.00     0.004 C 
HETATM   22  C   UNK N   1     167.731 157.441 153.839  0.00  0.00     0.019 C 
HETATM   23  C   UNK N   1     166.153 157.079 155.764  0.00  0.00     0.284 C 
BRANCH  21  24
HETATM   24  C   UNK N   1     165.315 157.513 153.443  0.00  0.00     0.175 C 
BRANCH  24  25
HETATM   25  O   UNK N   1     165.524 158.892 153.376  0.00  0.00    -0.400 OA
HETATM   26  H   UNK N   1     166.328 159.073 152.862  0.00  0.00     0.209 HD
ENDBRANCH  24  25
ENDBRANCH  21  24
ENDBRANCH  15  17
ENDBRANCH   1  15
BRANCH  10  27
HETATM   27  C   UNK N   1     158.347 157.624 159.309  0.00  0.00     0.417 C 
HETATM   28  F   UNK N   1     158.286 157.363 160.667  0.00  0.00    -0.166 F 
HETATM   29  F   UNK N   1     157.331 156.929 158.678  0.00  0.00    -0.166 F 
HETATM   30  F   UNK N   1     158.159 158.978 159.105  0.00  0.00    -0.166 F 
ENDBRANCH  10  27
TORSDOF 5
ENDMDL
MODEL 6
REMARK VINA RESULT:      -6.1      4.700      7.901
REMARK  5 active torsions:
REMARK  status: ('A' for Active; 'I' for Inactive)
REMARK    1  A    between atoms: C_2  and  C_3 
REMARK    2  A    between atoms: C_2  and  N_20 
REMARK       I    between atoms: C_3  and  N_5 
REMARK    3  A    between atoms: C_12  and  C_13 
REMARK    4  A    between atoms: C_24  and  C_26 
REMARK    5  A    between atoms: C_26  and  O_27 
ROOT
HETATM    1  C   UNK N   1     162.791 158.364 156.459  0.00  0.00     0.258 C 
HETATM    2  O   UNK N   1     163.475 159.377 156.493  0.00  0.00    -0.271 OA
HETATM    3  N   UNK N   1     163.329 157.158 156.047  0.00  0.00    -0.305 N 
HETATM    4  C   UNK N   1     162.451 155.991 156.057  0.00  0.00     0.235 C 
HETATM    5  C   UNK N   1     162.979 154.767 155.368  0.00  0.00     0.240 C 
HETATM    6  O   UNK N   1     162.264 153.784 155.277  0.00  0.00    -0.271 OA
HETATM    7  N   UNK N   1     164.219 154.736 154.841  0.00  0.00    -0.324 N 
HETATM    8  C   UNK N   1     165.095 155.837 154.929  0.00  0.00     0.062 A 
HETATM    9  C   UNK N   1     166.367 155.728 154.364  0.00  0.00     0.048 A 
HETATM   10  C   UNK N   1     167.265 156.795 154.416  0.00  0.00     0.050 A 
HETATM   11  C   UNK N   1     166.885 157.980 155.054  0.00  0.00     0.018 A 
HETATM   12  C   UNK N   1     165.605 158.102 155.606  0.00  0.00     0.033 A 
HETATM   13  C   UNK N   1     164.683 157.037 155.546  0.00  0.00     0.064 A 
HETATM   14  H   UNK N   1     164.522 153.920 154.382  0.00  0.00     0.169 HD
ENDROOT
BRANCH   1  15
HETATM   15  C   UNK N   1     161.306 158.472 156.812  0.00  0.00     0.310 C 
HETATM   16  C   UNK N   1     160.709 159.577 155.931  0.00  0.00     0.053 C 
BRANCH  15  17
HETATM   17  N   UNK N   1     161.077 158.772 158.243  0.00  0.00     0.102 N 
HETATM   18  C   UNK N   1     159.640 158.784 158.585  0.00  0.00     0.273 C 
HETATM   19  C   UNK N   1     158.991 157.402 158.419  0.00  0.00     0.031 C 
HETATM   20  C   UNK N   1     159.879 156.271 158.948  0.00  0.00     0.015 C 
HETATM   21  C   UNK N   1     161.010 156.781 159.845  0.00  0.00     0.004 C 
HETATM   22  C   UNK N   1     160.431 157.390 161.116  0.00  0.00     0.019 C 
HETATM   23  C   UNK N   1     161.848 157.829 159.085  0.00  0.00     0.284 C 
BRANCH  21  24
HETATM   24  C   UNK N   1     161.901 155.622 160.270  0.00  0.00     0.175 C 
BRANCH  24  25
HETATM   25  O   UNK N   1     161.338 154.394 159.913  0.00  0.00    -0.400 OA
HETATM   26  H   UNK N   1     161.203 154.367 158.952  0.00  0.00     0.209 HD
ENDBRANCH  24  25
ENDBRANCH  21  24
ENDBRANCH  15  17
ENDBRANCH   1  15
BRANCH  10  27
HETATM   27  C   UNK N   1     168.610 156.659 153.761  0.00  0.00     0.417 C 
HETATM   28  F   UNK N   1     169.620 156.571 154.704  0.00  0.00    -0.166 F 
HETATM   29  F   UNK N   1     168.843 157.767 152.966  0.00  0.00    -0.166 F 
HETATM   30  F   UNK N   1     168.635 155.525 152.971  0.00  0.00    -0.166 F 
ENDBRANCH  10  27
TORSDOF 5
ENDMDL
MODEL 7
REMARK VINA RESULT:      -6.0      2.536      4.263
REMARK  5 active torsions:
REMARK  status: ('A' for Active; 'I' for Inactive)
REMARK    1  A    between atoms: C_2  and  C_3 
REMARK    2  A    between atoms: C_2  and  N_20 
REMARK       I    between atoms: C_3  and  N_5 
REMARK    3  A    between atoms: C_12  and  C_13 
REMARK    4  A    between atoms: C_24  and  C_26 
REMARK    5  A    between atoms: C_26  and  O_27 
ROOT
HETATM    1  C   UNK N   1     164.923 156.827 155.160  0.00  0.00     0.258 C 
HETATM    2  O   UNK N   1     163.918 156.886 154.466  0.00  0.00    -0.271 OA
HETATM    3  N   UNK N   1     164.832 156.584 156.519  0.00  0.00    -0.305 N 
HETATM    4  C   UNK N   1     166.081 156.506 157.274  0.00  0.00     0.235 C 
HETATM    5  C   UNK N   1     165.945 156.501 158.768  0.00  0.00     0.240 C 
HETATM    6  O   UNK N   1     166.953 156.512 159.453  0.00  0.00    -0.271 OA
HETATM    7  N   UNK N   1     164.737 156.493 159.365  0.00  0.00    -0.324 N 
HETATM    8  C   UNK N   1     163.539 156.466 158.623  0.00  0.00     0.062 A 
HETATM    9  C   UNK N   1     162.325 156.454 159.313  0.00  0.00     0.048 A 
HETATM   10  C   UNK N   1     161.112 156.438 158.622  0.00  0.00     0.050 A 
HETATM   11  C   UNK N   1     161.120 156.420 157.223  0.00  0.00     0.018 A 
HETATM   12  C   UNK N   1     162.333 156.450 156.527  0.00  0.00     0.033 A 
HETATM   13  C   UNK N   1     163.564 156.483 157.213  0.00  0.00     0.064 A 
HETATM   14  H   UNK N   1     164.691 156.508 160.348  0.00  0.00     0.169 HD
ENDROOT
BRANCH   1  15
HETATM   15  C   UNK N   1     166.280 157.100 154.509  0.00  0.00     0.310 C 
HETATM   16  C   UNK N   1     166.205 158.493 153.871  0.00  0.00     0.053 C 
BRANCH  15  17
HETATM   17  N   UNK N   1     166.642 156.086 153.493  0.00  0.00     0.102 N 
HETATM   18  C   UNK N   1     167.980 156.332 152.916  0.00  0.00     0.273 C 
HETATM   19  C   UNK N   1     169.099 156.185 153.958  0.00  0.00     0.031 C 
HETATM   20  C   UNK N   1     168.888 154.978 154.878  0.00  0.00     0.015 C 
HETATM   21  C   UNK N   1     167.851 153.994 154.329  0.00  0.00     0.004 C 
HETATM   22  C   UNK N   1     168.364 153.363 153.040  0.00  0.00     0.019 C 
HETATM   23  C   UNK N   1     166.519 154.728 154.071  0.00  0.00     0.284 C 
BRANCH  21  24
HETATM   24  C   UNK N   1     167.628 152.863 155.323  0.00  0.00     0.175 C 
BRANCH  24  25
HETATM   25  O   UNK N   1     166.349 152.927 155.882  0.00  0.00    -0.400 OA
HETATM   26  H   UNK N   1     166.411 153.244 156.798  0.00  0.00     0.209 HD
ENDBRANCH  24  25
ENDBRANCH  21  24
ENDBRANCH  15  17
ENDBRANCH   1  15
BRANCH  10  27
HETATM   27  C   UNK N   1     159.823 156.469 159.393  0.00  0.00     0.417 C 
HETATM   28  F   UNK N   1     159.716 155.374 160.233  0.00  0.00    -0.166 F 
HETATM   29  F   UNK N   1     158.761 156.453 158.506  0.00  0.00    -0.166 F 
HETATM   30  F   UNK N   1     159.758 157.623 160.152  0.00  0.00    -0.166 F 
ENDBRANCH  10  27
TORSDOF 5
ENDMDL
MODEL 8
REMARK VINA RESULT:      -6.0      5.251      7.793
REMARK  5 active torsions:
REMARK  status: ('A' for Active; 'I' for Inactive)
REMARK    1  A    between atoms: C_2  and  C_3 
REMARK    2  A    between atoms: C_2  and  N_20 
REMARK       I    between atoms: C_3  and  N_5 
REMARK    3  A    between atoms: C_12  and  C_13 
REMARK    4  A    between atoms: C_24  and  C_26 
REMARK    5  A    between atoms: C_26  and  O_27 
ROOT
HETATM    1  C   UNK N   1     164.757 156.975 155.844  0.00  0.00     0.258 C 
HETATM    2  O   UNK N   1     163.787 157.047 155.102  0.00  0.00    -0.271 OA
HETATM    3  N   UNK N   1     165.985 156.555 155.365  0.00  0.00    -0.305 N 
HETATM    4  C   UNK N   1     167.099 156.520 156.311  0.00  0.00     0.235 C 
HETATM    5  C   UNK N   1     168.340 155.823 155.836  0.00  0.00     0.240 C 
HETATM    6  O   UNK N   1     169.277 155.695 156.605  0.00  0.00    -0.271 OA
HETATM    7  N   UNK N   1     168.436 155.329 154.586  0.00  0.00    -0.324 N 
HETATM    8  C   UNK N   1     167.390 155.461 153.650  0.00  0.00     0.062 A 
HETATM    9  C   UNK N   1     167.565 154.929 152.371  0.00  0.00     0.048 A 
HETATM   10  C   UNK N   1     166.554 155.024 151.414  0.00  0.00     0.050 A 
HETATM   11  C   UNK N   1     165.359 155.674 151.742  0.00  0.00     0.018 A 
HETATM   12  C   UNK N   1     165.171 156.193 153.026  0.00  0.00     0.033 A 
HETATM   13  C   UNK N   1     166.179 156.088 154.007  0.00  0.00     0.064 A 
HETATM   14  H   UNK N   1     169.261 154.863 154.319  0.00  0.00     0.169 HD
ENDROOT
BRANCH   1  15
HETATM   15  C   UNK N   1     164.567 157.289 157.329  0.00  0.00     0.310 C 
HETATM   16  C   UNK N   1     163.656 156.201 157.911  0.00  0.00     0.053 C 
BRANCH  15  17
HETATM   17  N   UNK N   1     163.984 158.630 157.561  0.00  0.00     0.102 N 
HETATM   18  C   UNK N   1     163.875 158.946 159.000  0.00  0.00     0.273 C 
HETATM   19  C   UNK N   1     165.249 159.051 159.678  0.00  0.00     0.031 C 
HETATM   20  C   UNK N   1     166.270 159.803 158.820  0.00  0.00     0.015 C 
HETATM   21  C   UNK N   1     165.616 160.595 157.684  0.00  0.00     0.004 C 
HETATM   22  C   UNK N   1     164.755 161.712 158.258  0.00  0.00     0.019 C 
HETATM   23  C   UNK N   1     164.757 159.651 156.817  0.00  0.00     0.284 C 
BRANCH  21  24
HETATM   24  C   UNK N   1     166.685 161.251 156.822  0.00  0.00     0.175 C 
BRANCH  24  25
HETATM   25  O   UNK N   1     166.167 162.339 156.116  0.00  0.00    -0.400 OA
HETATM   26  H   UNK N   1     165.262 162.137 155.828  0.00  0.00     0.209 HD
ENDBRANCH  24  25
ENDBRANCH  21  24
ENDBRANCH  15  17
ENDBRANCH   1  15
BRANCH  10  27
HETATM   27  C   UNK N   1     166.758 154.404 150.061  0.00  0.00     0.417 C 
HETATM   28  F   UNK N   1     165.549 154.174 149.428  0.00  0.00    -0.166 F 
HETATM   29  F   UNK N   1     167.417 153.196 150.209  0.00  0.00    -0.166 F 
HETATM   30  F   UNK N   1     167.524 155.241 149.272  0.00  0.00    -0.166 F 
ENDBRANCH  10  27
TORSDOF 5
ENDMDL
MODEL 9
REMARK VINA RESULT:      -6.0      3.074      4.656
REMARK  5 active torsions:
REMARK  status: ('A' for Active; 'I' for Inactive)
REMARK    1  A    between atoms: C_2  and  C_3 
REMARK    2  A    between atoms: C_2  and  N_20 
REMARK       I    between atoms: C_3  and  N_5 
REMARK    3  A    between atoms: C_12  and  C_13 
REMARK    4  A    between atoms: C_24  and  C_26 
REMARK    5  A    between atoms: C_26  and  O_27 
ROOT
HETATM    1  C   UNK N   1     164.149 157.316 155.943  0.00  0.00     0.258 C 
HETATM    2  O   UNK N   1     163.429 158.143 155.401  0.00  0.00    -0.271 OA
HETATM    3  N   UNK N   1     163.651 156.474 156.920  0.00  0.00    -0.305 N 
HETATM    4  C   UNK N   1     164.571 155.499 157.501  0.00  0.00     0.235 C 
HETATM    5  C   UNK N   1     164.081 154.783 158.725  0.00  0.00     0.240 C 
HETATM    6  O   UNK N   1     164.831 154.012 159.299  0.00  0.00    -0.271 OA
HETATM    7  N   UNK N   1     162.838 154.981 159.206  0.00  0.00    -0.324 N 
HETATM    8  C   UNK N   1     161.924 155.849 158.576  0.00  0.00     0.062 A 
HETATM    9  C   UNK N   1     160.652 155.998 159.130  0.00  0.00     0.048 A 
HETATM   10  C   UNK N   1     159.715 156.855 158.549  0.00  0.00     0.050 A 
HETATM   11  C   UNK N   1     160.059 157.559 157.389  0.00  0.00     0.018 A 
HETATM   12  C   UNK N   1     161.338 157.426 156.839  0.00  0.00     0.033 A 
HETATM   13  C   UNK N   1     162.297 156.577 157.427  0.00  0.00     0.064 A 
HETATM   14  H   UNK N   1     162.561 154.505 160.022  0.00  0.00     0.169 HD
ENDROOT
BRANCH   1  15
HETATM   15  C   UNK N   1     165.632 157.282 155.569  0.00  0.00     0.310 C 
HETATM   16  C   UNK N   1     166.118 158.736 155.505  0.00  0.00     0.053 C 
BRANCH  15  17
HETATM   17  N   UNK N   1     165.883 156.596 154.281  0.00  0.00     0.102 N 
HETATM   18  C   UNK N   1     167.083 157.120 153.598  0.00  0.00     0.273 C 
HETATM   19  C   UNK N   1     168.371 156.843 154.388  0.00  0.00     0.031 C 
HETATM   20  C   UNK N   1     168.401 155.430 154.980  0.00  0.00     0.015 C 
HETATM   21  C   UNK N   1     167.354 154.506 154.352  0.00  0.00     0.004 C 
HETATM   22  C   UNK N   1     167.680 154.273 152.883  0.00  0.00     0.019 C 
HETATM   23  C   UNK N   1     165.951 155.133 154.495  0.00  0.00     0.284 C 
BRANCH  21  24
HETATM   24  C   UNK N   1     167.380 153.147 155.037  0.00  0.00     0.175 C 
BRANCH  24  25
HETATM   25  O   UNK N   1     166.255 152.968 155.847  0.00  0.00    -0.400 OA
HETATM   26  H   UNK N   1     166.104 153.769 156.374  0.00  0.00     0.209 HD
ENDBRANCH  24  25
ENDBRANCH  21  24
ENDBRANCH  15  17
ENDBRANCH   1  15
BRANCH  10  27
HETATM   27  C   UNK N   1     158.370 157.025 159.194  0.00  0.00     0.417 C 
HETATM   28  F   UNK N   1     157.357 156.574 158.366  0.00  0.00    -0.166 F 
HETATM   29  F   UNK N   1     158.160 158.367 159.461  0.00  0.00    -0.166 F 
HETATM   30  F   UNK N   1     158.327 156.318 160.381  0.00  0.00    -0.166 F 
ENDBRANCH  10  27
TORSDOF 5
ENDMDL
