MODEL 1
REMARK VINA RESULT:      -6.3      0.000      0.000
REMARK  6 active torsions:
REMARK  status: ('A' for Active; 'I' for Inactive)
REMARK    1  A    between atoms: C_2  and  N_3 
REMARK    2  A    between atoms: N_3  and  S_4 
REMARK    3  A    between atoms: S_4  and  C_7 
REMARK    4  A    between atoms: C_11  and  C_12 
REMARK       I    between atoms: C_12  and  N_14 
REMARK    5  A    between atoms: C_18  and  C_20 
REMARK    6  A    between atoms: C_20  and  O_21 
ROOT
HETATM    1  C   UNK N   1     167.990 152.335 150.535  0.00  0.00     0.075 A 
HETATM    2  C   UNK N   1     167.075 153.059 149.770  0.00  0.00     0.025 A 
HETATM    3  C   UNK N   1     166.648 154.312 150.196  0.00  0.00     0.003 A 
HETATM    4  C   UNK N   1     167.138 154.842 151.388  0.00  0.00     0.017 A 
HETATM    5  C   UNK N   1     168.057 154.134 152.179  0.00  0.00     0.033 A 
HETATM    6  C   UNK N   1     168.476 152.866 151.736  0.00  0.00     0.041 A 
ENDROOT
BRANCH   5   7
HETATM    7  C   UNK N   1     168.625 154.696 153.452  0.00  0.00     0.253 C 
HETATM    8  O   UNK N   1     169.755 155.173 153.411  0.00  0.00    -0.267 OA
HETATM    9  N   UNK N   1     167.933 154.736 154.640  0.00  0.00    -0.347 N 
HETATM   10  C   UNK N   1     166.581 154.223 154.762  0.00  0.00     0.126 C 
HETATM   11  C   UNK N   1     168.526 155.397 155.799  0.00  0.00     0.137 C 
HETATM   12  C   UNK N   1     165.617 155.353 155.125  0.00  0.00     0.021 C 
HETATM   13  C   UNK N   1     166.246 156.383 156.078  0.00  0.00     0.014 C 
HETATM   14  C   UNK N   1     167.468 155.833 156.828  0.00  0.00    -0.006 C 
HETATM   15  C   UNK N   1     168.058 156.935 157.687  0.00  0.00     0.019 C 
BRANCH  14  16
HETATM   16  C   UNK N   1     167.076 154.655 157.725  0.00  0.00     0.175 C 
BRANCH  16  17
HETATM   17  O   UNK N   1     168.172 153.820 157.966  0.00  0.00    -0.400 OA
HETATM   18  H   UNK N   1     168.611 153.613 157.126  0.00  0.00     0.209 HD
ENDBRANCH  16  17
ENDBRANCH  14  16
ENDBRANCH   5   7
BRANCH   1  19
HETATM   19  S   UNK N   1     168.492 150.713 149.983  0.00  0.00     0.241 S 
HETATM   20  O   UNK N   1     168.393 150.541 148.460  0.00  0.00    -0.206 OA
HETATM   21  O   UNK N   1     169.976 150.414 150.246  0.00  0.00    -0.206 OA
BRANCH  19  22
HETATM   22  N   UNK N   1     167.612 149.343 150.664  0.00  0.00    -0.216 NA
HETATM   23  H   UNK N   1     166.918 149.659 151.341  0.00  0.00     0.139 HD
BRANCH  22  24
HETATM   24  C   UNK N   1     168.601 148.489 151.301  0.00  0.00     0.100 C 
HETATM   25  C   UNK N   1     168.513 148.640 152.804  0.00  0.00     0.021 C 
ENDBRANCH  22  24
ENDBRANCH  19  22
ENDBRANCH   1  19
TORSDOF 6
ENDMDL
MODEL 2
REMARK VINA RESULT:      -5.9      3.513      5.145
REMARK  6 active torsions:
REMARK  status: ('A' for Active; 'I' for Inactive)
REMARK    1  A    between atoms: C_2  and  N_3 
REMARK    2  A    between atoms: N_3  and  S_4 
REMARK    3  A    between atoms: S_4  and  C_7 
REMARK    4  A    between atoms: C_11  and  C_12 
REMARK       I    between atoms: C_12  and  N_14 
REMARK    5  A    between atoms: C_18  and  C_20 
REMARK    6  A    between atoms: C_20  and  O_21 
ROOT
HETATM    1  C   UNK N   1     168.928 149.680 155.440  0.00  0.00     0.075 A 
HETATM    2  C   UNK N   1     170.296 149.437 155.311  0.00  0.00     0.025 A 
HETATM    3  C   UNK N   1     171.073 150.248 154.491  0.00  0.00     0.003 A 
HETATM    4  C   UNK N   1     170.481 151.304 153.800  0.00  0.00     0.017 A 
HETATM    5  C   UNK N   1     169.106 151.569 153.910  0.00  0.00     0.033 A 
HETATM    6  C   UNK N   1     168.333 150.737 154.740  0.00  0.00     0.041 A 
ENDROOT
BRANCH   5   7
HETATM    7  C   UNK N   1     168.450 152.721 153.201  0.00  0.00     0.253 C 
HETATM    8  O   UNK N   1     168.326 152.645 151.983  0.00  0.00    -0.267 OA
HETATM    9  N   UNK N   1     167.953 153.828 153.849  0.00  0.00    -0.347 N 
HETATM   10  C   UNK N   1     168.031 153.978 155.289  0.00  0.00     0.126 C 
HETATM   11  C   UNK N   1     167.238 154.848 153.088  0.00  0.00     0.137 C 
HETATM   12  C   UNK N   1     166.628 154.027 155.893  0.00  0.00     0.021 C 
HETATM   13  C   UNK N   1     165.624 154.770 154.995  0.00  0.00     0.014 C 
HETATM   14  C   UNK N   1     166.306 155.693 153.975  0.00  0.00    -0.006 C 
HETATM   15  C   UNK N   1     165.246 156.325 153.094  0.00  0.00     0.019 C 
BRANCH  14  16
HETATM   16  C   UNK N   1     167.096 156.799 154.680  0.00  0.00     0.175 C 
BRANCH  16  17
HETATM   17  O   UNK N   1     167.968 157.438 153.792  0.00  0.00    -0.400 OA
HETATM   18  H   UNK N   1     168.868 157.415 154.151  0.00  0.00     0.209 HD
ENDBRANCH  16  17
ENDBRANCH  14  16
ENDBRANCH   5   7
BRANCH   1  19
HETATM   19  S   UNK N   1     167.947 148.600 156.470  0.00  0.00     0.241 S 
HETATM   20  O   UNK N   1     168.303 148.708 157.960  0.00  0.00    -0.206 OA
HETATM   21  O   UNK N   1     166.452 148.953 156.468  0.00  0.00    -0.206 OA
BRANCH  19  22
HETATM   22  N   UNK N   1     168.021 146.877 156.098  0.00  0.00    -0.216 NA
HETATM   23  H   UNK N   1     167.084 146.493 155.978  0.00  0.00     0.139 HD
BRANCH  22  24
HETATM   24  C   UNK N   1     168.700 146.239 157.213  0.00  0.00     0.100 C 
HETATM   25  C   UNK N   1     170.099 145.842 156.799  0.00  0.00     0.021 C 
ENDBRANCH  22  24
ENDBRANCH  19  22
ENDBRANCH   1  19
TORSDOF 6
ENDMDL
MODEL 3
REMARK VINA RESULT:      -5.8      3.304      4.692
REMARK  6 active torsions:
REMARK  status: ('A' for Active; 'I' for Inactive)
REMARK    1  A    between atoms: C_2  and  N_3 
REMARK    2  A    between atoms: N_3  and  S_4 
REMARK    3  A    between atoms: S_4  and  C_7 
REMARK    4  A    between atoms: C_11  and  C_12 
REMARK       I    between atoms: C_12  and  N_14 
REMARK    5  A    between atoms: C_18  and  C_20 
REMARK    6  A    between atoms: C_20  and  O_21 
ROOT
HETATM    1  C   UNK N   1     167.653 153.643 154.302  0.00  0.00     0.075 A 
HETATM    2  C   UNK N   1     167.976 153.705 152.946  0.00  0.00     0.025 A 
HETATM    3  C   UNK N   1     167.456 154.722 152.153  0.00  0.00     0.003 A 
HETATM    4  C   UNK N   1     166.611 155.677 152.716  0.00  0.00     0.017 A 
HETATM    5  C   UNK N   1     166.268 155.636 154.077  0.00  0.00     0.033 A 
HETATM    6  C   UNK N   1     166.799 154.599 154.866  0.00  0.00     0.041 A 
ENDROOT
BRANCH   5   7
HETATM    7  C   UNK N   1     165.385 156.672 154.716  0.00  0.00     0.253 C 
HETATM    8  O   UNK N   1     164.172 156.544 154.590  0.00  0.00    -0.267 OA
HETATM    9  N   UNK N   1     165.866 157.725 155.459  0.00  0.00    -0.347 N 
HETATM   10  C   UNK N   1     167.284 157.928 155.682  0.00  0.00     0.126 C 
HETATM   11  C   UNK N   1     164.929 158.622 156.129  0.00  0.00     0.137 C 
HETATM   12  C   UNK N   1     167.607 157.815 157.172  0.00  0.00     0.021 C 
HETATM   13  C   UNK N   1     166.496 158.394 158.063  0.00  0.00     0.014 C 
HETATM   14  C   UNK N   1     165.575 159.366 157.310  0.00  0.00    -0.006 C 
HETATM   15  C   UNK N   1     164.476 159.830 158.246  0.00  0.00     0.019 C 
BRANCH  14  16
HETATM   16  C   UNK N   1     166.356 160.586 156.812  0.00  0.00     0.175 C 
BRANCH  16  17
HETATM   17  O   UNK N   1     165.737 161.157 155.696  0.00  0.00    -0.400 OA
HETATM   18  H   UNK N   1     165.907 162.111 155.685  0.00  0.00     0.209 HD
ENDBRANCH  16  17
ENDBRANCH  14  16
ENDBRANCH   5   7
BRANCH   1  19
HETATM   19  S   UNK N   1     168.305 152.306 155.289  0.00  0.00     0.241 S 
HETATM   20  O   UNK N   1     168.501 152.690 156.764  0.00  0.00    -0.206 OA
HETATM   21  O   UNK N   1     167.352 151.106 155.393  0.00  0.00    -0.206 OA
BRANCH  19  22
HETATM   22  N   UNK N   1     169.852 151.629 154.775  0.00  0.00    -0.216 NA
HETATM   23  H   UNK N   1     170.303 152.237 154.092  0.00  0.00     0.139 HD
BRANCH  22  24
HETATM   24  C   UNK N   1     169.565 150.327 154.197  0.00  0.00     0.100 C 
HETATM   25  C   UNK N   1     169.716 150.392 152.693  0.00  0.00     0.021 C 
ENDBRANCH  22  24
ENDBRANCH  19  22
ENDBRANCH   1  19
TORSDOF 6
ENDMDL
MODEL 4
REMARK VINA RESULT:      -5.8      3.009      7.203
REMARK  6 active torsions:
REMARK  status: ('A' for Active; 'I' for Inactive)
REMARK    1  A    between atoms: C_2  and  N_3 
REMARK    2  A    between atoms: N_3  and  S_4 
REMARK    3  A    between atoms: S_4  and  C_7 
REMARK    4  A    between atoms: C_11  and  C_12 
REMARK       I    between atoms: C_12  and  N_14 
REMARK    5  A    between atoms: C_18  and  C_20 
REMARK    6  A    between atoms: C_20  and  O_21 
ROOT
HETATM    1  C   UNK N   1     166.613 154.496 156.085  0.00  0.00     0.075 A 
HETATM    2  C   UNK N   1     167.484 155.499 156.510  0.00  0.00     0.025 A 
HETATM    3  C   UNK N   1     168.670 155.730 155.820  0.00  0.00     0.003 A 
HETATM    4  C   UNK N   1     168.984 154.957 154.704  0.00  0.00     0.017 A 
HETATM    5  C   UNK N   1     168.125 153.939 154.256  0.00  0.00     0.033 A 
HETATM    6  C   UNK N   1     166.932 153.716 154.966  0.00  0.00     0.041 A 
ENDROOT
BRANCH   5   7
HETATM    7  C   UNK N   1     168.424 153.113 153.036  0.00  0.00     0.253 C 
HETATM    8  O   UNK N   1     168.330 153.658 151.941  0.00  0.00    -0.267 OA
HETATM    9  N   UNK N   1     168.830 151.800 153.089  0.00  0.00    -0.347 N 
HETATM   10  C   UNK N   1     168.997 151.094 154.345  0.00  0.00     0.126 C 
HETATM   11  C   UNK N   1     169.199 151.109 151.857  0.00  0.00     0.137 C 
HETATM   12  C   UNK N   1     170.457 150.683 154.531  0.00  0.00     0.021 C 
HETATM   13  C   UNK N   1     171.129 150.275 153.210  0.00  0.00     0.014 C 
HETATM   14  C   UNK N   1     170.117 149.901 152.117  0.00  0.00    -0.006 C 
HETATM   15  C   UNK N   1     170.866 149.582 150.838  0.00  0.00     0.019 C 
BRANCH  14  16
HETATM   16  C   UNK N   1     169.290 148.680 152.531  0.00  0.00     0.175 C 
BRANCH  16  17
HETATM   17  O   UNK N   1     168.432 148.282 151.501  0.00  0.00    -0.400 OA
HETATM   18  H   UNK N   1     167.518 148.506 151.738  0.00  0.00     0.209 HD
ENDBRANCH  16  17
ENDBRANCH  14  16
ENDBRANCH   5   7
BRANCH   1  19
HETATM   19  S   UNK N   1     165.116 154.197 157.011  0.00  0.00     0.241 S 
HETATM   20  O   UNK N   1     164.471 152.841 156.684  0.00  0.00    -0.206 OA
HETATM   21  O   UNK N   1     165.349 154.087 158.525  0.00  0.00    -0.206 OA
BRANCH  19  22
HETATM   22  N   UNK N   1     163.823 155.384 156.823  0.00  0.00    -0.216 NA
HETATM   23  H   UNK N   1     163.019 155.136 157.398  0.00  0.00     0.139 HD
BRANCH  22  24
HETATM   24  C   UNK N   1     163.467 155.392 155.414  0.00  0.00     0.100 C 
HETATM   25  C   UNK N   1     163.890 156.702 154.788  0.00  0.00     0.021 C 
ENDBRANCH  22  24
ENDBRANCH  19  22
ENDBRANCH   1  19
TORSDOF 6
ENDMDL
MODEL 5
REMARK VINA RESULT:      -5.7      2.078      3.666
REMARK  6 active torsions:
REMARK  status: ('A' for Active; 'I' for Inactive)
REMARK    1  A    between atoms: C_2  and  N_3 
REMARK    2  A    between atoms: N_3  and  S_4 
REMARK    3  A    between atoms: S_4  and  C_7 
REMARK    4  A    between atoms: C_11  and  C_12 
REMARK       I    between atoms: C_12  and  N_14 
REMARK    5  A    between atoms: C_18  and  C_20 
REMARK    6  A    between atoms: C_20  and  O_21 
ROOT
HETATM    1  C   UNK N   1     169.378 150.794 151.113  0.00  0.00     0.075 A 
HETATM    2  C   UNK N   1     170.599 150.186 151.402  0.00  0.00     0.025 A 
HETATM    3  C   UNK N   1     171.095 150.203 152.701  0.00  0.00     0.003 A 
HETATM    4  C   UNK N   1     170.368 150.828 153.713  0.00  0.00     0.017 A 
HETATM    5  C   UNK N   1     169.137 151.450 153.449  0.00  0.00     0.033 A 
HETATM    6  C   UNK N   1     168.650 151.428 152.129  0.00  0.00     0.041 A 
ENDROOT
BRANCH   5   7
HETATM    7  C   UNK N   1     168.318 152.103 154.527  0.00  0.00     0.253 C 
HETATM    8  O   UNK N   1     167.936 151.401 155.457  0.00  0.00    -0.267 OA
HETATM    9  N   UNK N   1     168.010 153.444 154.540  0.00  0.00    -0.347 N 
HETATM   10  C   UNK N   1     168.452 154.347 153.494  0.00  0.00     0.126 C 
HETATM   11  C   UNK N   1     167.299 154.009 155.682  0.00  0.00     0.137 C 
HETATM   12  C   UNK N   1     169.387 155.409 154.072  0.00  0.00     0.021 C 
HETATM   13  C   UNK N   1     168.977 155.851 155.486  0.00  0.00     0.014 C 
HETATM   14  C   UNK N   1     167.511 155.528 155.810  0.00  0.00    -0.006 C 
HETATM   15  C   UNK N   1     167.220 155.936 157.241  0.00  0.00     0.019 C 
BRANCH  14  16
HETATM   16  C   UNK N   1     166.564 156.282 154.872  0.00  0.00     0.175 C 
BRANCH  16  17
HETATM   17  O   UNK N   1     166.781 157.661 154.940  0.00  0.00    -0.400 OA
HETATM   18  H   UNK N   1     167.717 157.831 155.130  0.00  0.00     0.209 HD
ENDBRANCH  16  17
ENDBRANCH  14  16
ENDBRANCH   5   7
BRANCH   1  19
HETATM   19  S   UNK N   1     168.782 150.791 149.430  0.00  0.00     0.241 S 
HETATM   20  O   UNK N   1     169.894 151.040 148.400  0.00  0.00    -0.206 OA
HETATM   21  O   UNK N   1     168.228 149.429 148.984  0.00  0.00    -0.206 OA
BRANCH  19  22
HETATM   22  N   UNK N   1     167.517 151.959 149.040  0.00  0.00    -0.216 NA
HETATM   23  H   UNK N   1     167.047 151.706 148.171  0.00  0.00     0.139 HD
BRANCH  22  24
HETATM   24  C   UNK N   1     168.168 153.252 148.916  0.00  0.00     0.100 C 
HETATM   25  C   UNK N   1     167.310 154.319 149.557  0.00  0.00     0.021 C 
ENDBRANCH  22  24
ENDBRANCH  19  22
ENDBRANCH   1  19
TORSDOF 6
ENDMDL
MODEL 6
REMARK VINA RESULT:      -5.7      3.158      7.082
REMARK  6 active torsions:
REMARK  status: ('A' for Active; 'I' for Inactive)
REMARK    1  A    between atoms: C_2  and  N_3 
REMARK    2  A    between atoms: N_3  and  S_4 
REMARK    3  A    between atoms: S_4  and  C_7 
REMARK    4  A    between atoms: C_11  and  C_12 
REMARK       I    between atoms: C_12  and  N_14 
REMARK    5  A    between atoms: C_18  and  C_20 
REMARK    6  A    between atoms: C_20  and  O_21 
ROOT
HETATM    1  C   UNK N   1     166.675 155.612 154.862  0.00  0.00     0.075 A 
HETATM    2  C   UNK N   1     167.762 156.316 155.381  0.00  0.00     0.025 A 
HETATM    3  C   UNK N   1     169.046 156.060 154.912  0.00  0.00     0.003 A 
HETATM    4  C   UNK N   1     169.243 155.099 153.921  0.00  0.00     0.017 A 
HETATM    5  C   UNK N   1     168.166 154.375 153.383  0.00  0.00     0.033 A 
HETATM    6  C   UNK N   1     166.875 154.642 153.871  0.00  0.00     0.041 A 
ENDROOT
BRANCH   5   7
HETATM    7  C   UNK N   1     168.348 153.356 152.292  0.00  0.00     0.253 C 
HETATM    8  O   UNK N   1     168.167 153.722 151.135  0.00  0.00    -0.267 OA
HETATM    9  N   UNK N   1     168.738 152.058 152.523  0.00  0.00    -0.347 N 
HETATM   10  C   UNK N   1     169.003 151.557 153.858  0.00  0.00     0.126 C 
HETATM   11  C   UNK N   1     168.990 151.169 151.392  0.00  0.00     0.137 C 
HETATM   12  C   UNK N   1     170.468 151.141 153.986  0.00  0.00     0.021 C 
HETATM   13  C   UNK N   1     171.017 150.508 152.697  0.00  0.00     0.014 C 
HETATM   14  C   UNK N   1     169.909 149.993 151.766  0.00  0.00    -0.006 C 
HETATM   15  C   UNK N   1     170.541 149.453 150.498  0.00  0.00     0.019 C 
BRANCH  14  16
HETATM   16  C   UNK N   1     169.104 148.877 152.439  0.00  0.00     0.175 C 
BRANCH  16  17
HETATM   17  O   UNK N   1     167.833 148.762 151.870  0.00  0.00    -0.400 OA
HETATM   18  H   UNK N   1     167.915 148.692 150.906  0.00  0.00     0.209 HD
ENDBRANCH  16  17
ENDBRANCH  14  16
ENDBRANCH   5   7
BRANCH   1  19
HETATM   19  S   UNK N   1     165.043 155.934 155.509  0.00  0.00     0.241 S 
HETATM   20  O   UNK N   1     164.140 154.691 155.504  0.00  0.00    -0.206 OA
HETATM   21  O   UNK N   1     165.044 156.325 156.995  0.00  0.00    -0.206 OA
BRANCH  19  22
HETATM   22  N   UNK N   1     164.108 157.191 154.697  0.00  0.00    -0.216 NA
HETATM   23  H   UNK N   1     163.142 156.892 154.561  0.00  0.00     0.139 HD
BRANCH  22  24
HETATM   24  C   UNK N   1     164.757 157.433 153.419  0.00  0.00     0.100 C 
HETATM   25  C   UNK N   1     164.161 156.528 152.364  0.00  0.00     0.021 C 
ENDBRANCH  22  24
ENDBRANCH  19  22
ENDBRANCH   1  19
TORSDOF 6
ENDMDL
MODEL 7
REMARK VINA RESULT:      -5.7      5.115      8.703
REMARK  6 active torsions:
REMARK  status: ('A' for Active; 'I' for Inactive)
REMARK    1  A    between atoms: C_2  and  N_3 
REMARK    2  A    between atoms: N_3  and  S_4 
REMARK    3  A    between atoms: S_4  and  C_7 
REMARK    4  A    between atoms: C_11  and  C_12 
REMARK       I    between atoms: C_12  and  N_14 
REMARK    5  A    between atoms: C_18  and  C_20 
REMARK    6  A    between atoms: C_20  and  O_21 
ROOT
HETATM    1  C   UNK N   1     162.573 156.014 157.963  0.00  0.00     0.075 A 
HETATM    2  C   UNK N   1     162.947 156.088 159.304  0.00  0.00     0.025 A 
HETATM    3  C   UNK N   1     164.117 155.471 159.736  0.00  0.00     0.003 A 
HETATM    4  C   UNK N   1     164.912 154.780 158.824  0.00  0.00     0.017 A 
HETATM    5  C   UNK N   1     164.557 154.688 157.468  0.00  0.00     0.033 A 
HETATM    6  C   UNK N   1     163.370 155.314 157.048  0.00  0.00     0.041 A 
ENDROOT
BRANCH   5   7
HETATM    7  C   UNK N   1     165.414 153.976 156.458  0.00  0.00     0.253 C 
HETATM    8  O   UNK N   1     165.196 152.784 156.265  0.00  0.00    -0.267 OA
HETATM    9  N   UNK N   1     166.395 154.598 155.722  0.00  0.00    -0.347 N 
HETATM   10  C   UNK N   1     166.691 156.010 155.868  0.00  0.00     0.126 C 
HETATM   11  C   UNK N   1     167.105 153.849 154.689  0.00  0.00     0.137 C 
HETATM   12  C   UNK N   1     166.406 156.749 154.561  0.00  0.00     0.021 C 
HETATM   13  C   UNK N   1     166.758 155.912 153.320  0.00  0.00     0.014 C 
HETATM   14  C   UNK N   1     167.737 154.769 153.630  0.00  0.00    -0.006 C 
HETATM   15  C   UNK N   1     167.969 153.962 152.368  0.00  0.00     0.019 C 
BRANCH  14  16
HETATM   16  C   UNK N   1     169.078 155.317 154.128  0.00  0.00     0.175 C 
BRANCH  16  17
HETATM   17  O   UNK N   1     169.616 156.231 153.217  0.00  0.00    -0.400 OA
HETATM   18  H   UNK N   1     170.012 155.751 152.473  0.00  0.00     0.209 HD
ENDBRANCH  16  17
ENDBRANCH  14  16
ENDBRANCH   5   7
BRANCH   1  19
HETATM   19  S   UNK N   1     161.048 156.783 157.443  0.00  0.00     0.241 S 
HETATM   20  O   UNK N   1     161.239 157.766 156.277  0.00  0.00    -0.206 OA
HETATM   21  O   UNK N   1     160.032 155.788 156.863  0.00  0.00    -0.206 OA
BRANCH  19  22
HETATM   22  N   UNK N   1     160.163 157.689 158.673  0.00  0.00    -0.216 NA
HETATM   23  H   UNK N   1     160.769 157.911 159.463  0.00  0.00     0.139 HD
BRANCH  22  24
HETATM   24  C   UNK N   1     159.056 156.847 159.094  0.00  0.00     0.100 C 
HETATM   25  C   UNK N   1     159.412 156.142 160.384  0.00  0.00     0.021 C 
ENDBRANCH  22  24
ENDBRANCH  19  22
ENDBRANCH   1  19
TORSDOF 6
ENDMDL
MODEL 8
REMARK VINA RESULT:      -5.7      3.530      5.641
REMARK  6 active torsions:
REMARK  status: ('A' for Active; 'I' for Inactive)
REMARK    1  A    between atoms: C_2  and  N_3 
REMARK    2  A    between atoms: N_3  and  S_4 
REMARK    3  A    between atoms: S_4  and  C_7 
REMARK    4  A    between atoms: C_11  and  C_12 
REMARK       I    between atoms: C_12  and  N_14 
REMARK    5  A    between atoms: C_18  and  C_20 
REMARK    6  A    between atoms: C_20  and  O_21 
ROOT
HETATM    1  C   UNK N   1     167.046 154.860 154.432  0.00  0.00     0.075 A 
HETATM    2  C   UNK N   1     166.561 153.825 155.231  0.00  0.00     0.025 A 
HETATM    3  C   UNK N   1     165.731 154.108 156.311  0.00  0.00     0.003 A 
HETATM    4  C   UNK N   1     165.387 155.429 156.592  0.00  0.00     0.017 A 
HETATM    5  C   UNK N   1     165.863 156.491 155.805  0.00  0.00     0.033 A 
HETATM    6  C   UNK N   1     166.704 156.188 154.719  0.00  0.00     0.041 A 
ENDROOT
BRANCH   5   7
HETATM    7  C   UNK N   1     165.481 157.921 156.067  0.00  0.00     0.253 C 
HETATM    8  O   UNK N   1     164.472 158.351 155.519  0.00  0.00    -0.267 OA
HETATM    9  N   UNK N   1     166.179 158.751 156.913  0.00  0.00    -0.347 N 
HETATM   10  C   UNK N   1     167.363 158.308 157.625  0.00  0.00     0.126 C 
HETATM   11  C   UNK N   1     165.672 160.092 157.188  0.00  0.00     0.137 C 
HETATM   12  C   UNK N   1     167.121 158.351 159.134  0.00  0.00     0.021 C 
HETATM   13  C   UNK N   1     166.247 159.543 159.558  0.00  0.00     0.014 C 
HETATM   14  C   UNK N   1     166.217 160.664 158.508  0.00  0.00    -0.006 C 
HETATM   15  C   UNK N   1     165.281 161.759 158.981  0.00  0.00     0.019 C 
BRANCH  14  16
HETATM   16  C   UNK N   1     167.615 161.256 158.299  0.00  0.00     0.175 C 
BRANCH  16  17
HETATM   17  O   UNK N   1     167.720 161.863 157.044  0.00  0.00    -0.400 OA
HETATM   18  H   UNK N   1     168.632 162.163 156.906  0.00  0.00     0.209 HD
ENDBRANCH  16  17
ENDBRANCH  14  16
ENDBRANCH   5   7
BRANCH   1  19
HETATM   19  S   UNK N   1     168.139 154.472 153.075  0.00  0.00     0.241 S 
HETATM   20  O   UNK N   1     169.553 155.042 153.262  0.00  0.00    -0.206 OA
HETATM   21  O   UNK N   1     168.415 152.968 152.928  0.00  0.00    -0.206 OA
BRANCH  19  22
HETATM   22  N   UNK N   1     167.629 155.011 151.474  0.00  0.00    -0.216 NA
HETATM   23  H   UNK N   1     166.767 155.553 151.533  0.00  0.00     0.139 HD
BRANCH  22  24
HETATM   24  C   UNK N   1     167.430 153.813 150.675  0.00  0.00     0.100 C 
HETATM   25  C   UNK N   1     166.471 154.108 149.544  0.00  0.00     0.021 C 
ENDBRANCH  22  24
ENDBRANCH  19  22
ENDBRANCH   1  19
TORSDOF 6
ENDMDL
MODEL 9
REMARK VINA RESULT:      -5.6      3.314      4.147
REMARK  6 active torsions:
REMARK  status: ('A' for Active; 'I' for Inactive)
REMARK    1  A    between atoms: C_2  and  N_3 
REMARK    2  A    between atoms: N_3  and  S_4 
REMARK    3  A    between atoms: S_4  and  C_7 
REMARK    4  A    between atoms: C_11  and  C_12 
REMARK       I    between atoms: C_12  and  N_14 
REMARK    5  A    between atoms: C_18  and  C_20 
REMARK    6  A    between atoms: C_20  and  O_21 
ROOT
HETATM    1  C   UNK N   1     168.316 151.183 154.717  0.00  0.00     0.075 A 
HETATM    2  C   UNK N   1     168.839 151.189 153.424  0.00  0.00     0.025 A 
HETATM    3  C   UNK N   1     169.129 152.395 152.795  0.00  0.00     0.003 A 
HETATM    4  C   UNK N   1     168.895 153.597 153.461  0.00  0.00     0.017 A 
HETATM    5  C   UNK N   1     168.366 153.620 154.762  0.00  0.00     0.033 A 
HETATM    6  C   UNK N   1     168.075 152.392 155.383  0.00  0.00     0.041 A 
ENDROOT
BRANCH   5   7
HETATM    7  C   UNK N   1     168.135 154.901 155.514  0.00  0.00     0.253 C 
HETATM    8  O   UNK N   1     169.040 155.311 156.233  0.00  0.00    -0.267 OA
HETATM    9  N   UNK N   1     166.984 155.646 155.408  0.00  0.00    -0.347 N 
HETATM   10  C   UNK N   1     165.881 155.246 154.555  0.00  0.00     0.126 C 
HETATM   11  C   UNK N   1     166.891 156.931 156.096  0.00  0.00     0.137 C 
HETATM   12  C   UNK N   1     165.661 156.282 153.454  0.00  0.00     0.021 C 
HETATM   13  C   UNK N   1     165.907 157.720 153.938  0.00  0.00     0.014 C 
HETATM   14  C   UNK N   1     165.834 157.856 155.466  0.00  0.00    -0.006 C 
HETATM   15  C   UNK N   1     166.157 159.287 155.852  0.00  0.00     0.019 C 
BRANCH  14  16
HETATM   16  C   UNK N   1     164.437 157.501 155.982  0.00  0.00     0.175 C 
BRANCH  16  17
HETATM   17  O   UNK N   1     163.457 158.275 155.352  0.00  0.00    -0.400 OA
HETATM   18  H   UNK N   1     163.723 158.448 154.435  0.00  0.00     0.209 HD
ENDBRANCH  16  17
ENDBRANCH  14  16
ENDBRANCH   5   7
BRANCH   1  19
HETATM   19  S   UNK N   1     167.918 149.621 155.486  0.00  0.00     0.241 S 
HETATM   20  O   UNK N   1     168.528 149.471 156.888  0.00  0.00    -0.206 OA
HETATM   21  O   UNK N   1     166.418 149.447 155.766  0.00  0.00    -0.206 OA
BRANCH  19  22
HETATM   22  N   UNK N   1     168.401 148.167 154.611  0.00  0.00    -0.216 NA
HETATM   23  H   UNK N   1     167.693 147.439 154.701  0.00  0.00     0.139 HD
BRANCH  22  24
HETATM   24  C   UNK N   1     169.663 147.734 155.187  0.00  0.00     0.100 C 
HETATM   25  C   UNK N   1     170.808 148.182 154.306  0.00  0.00     0.021 C 
ENDBRANCH  22  24
ENDBRANCH  19  22
ENDBRANCH   1  19
TORSDOF 6
ENDMDL
