MODEL 1
REMARK VINA RESULT:      -4.8      0.000      0.000
REMARK  9 active torsions:
REMARK  status: ('A' for Active; 'I' for Inactive)
REMARK    1  A    between atoms: C_2  and  C_4 
REMARK    2  A    between atoms: C_4  and  C_5 
REMARK    3  A    between atoms: C_5  and  C_6 
REMARK       I    between atoms: C_6  and  N_8 
REMARK    4  A    between atoms: N_8  and  C_9 
REMARK    5  A    between atoms: N_8  and  C_19 
REMARK    6  A    between atoms: C_9  and  C_10 
REMARK    7  A    between atoms: C_10  and  N_11 
REMARK       I    between atoms: N_11  and  C_12 
REMARK    8  A    between atoms: C_12  and  C_14 
REMARK    9  A    between atoms: C_15  and  C_17 
ROOT
HETATM    1  C   UNK N   1     167.999 156.684 153.646  0.00  0.00     0.220 C 
HETATM    2  O   UNK N   1     168.565 156.921 152.586  0.00  0.00    -0.273 OA
HETATM    3  N   UNK N   1     168.120 155.447 154.214  0.00  0.00    -0.346 N 
ENDROOT
BRANCH   3   4
HETATM    4  C   UNK N   1     167.459 155.167 155.479  0.00  0.00     0.146 C 
BRANCH   4   5
HETATM    5  C   UNK N   1     168.473 155.229 156.617  0.00  0.00     0.143 C 
BRANCH   5   6
HETATM    6  N   UNK N   1     168.692 156.594 157.034  0.00  0.00    -0.356 N 
HETATM    7  C   UNK N   1     168.101 157.115 158.135  0.00  0.00     0.241 C 
HETATM    8  O   UNK N   1     167.363 156.422 158.823  0.00  0.00    -0.269 OA
HETATM    9  H   UNK N   1     169.291 157.164 156.501  0.00  0.00     0.162 HD
BRANCH   7  10
HETATM   10  C   UNK N   1     168.358 158.530 158.487  0.00  0.00     0.076 C 
HETATM   11  C   UNK N   1     167.579 159.573 158.153  0.00  0.00    -0.079 C 
HETATM   12  C   UNK N   1     167.989 160.937 158.592  0.00  0.00     0.043 C 
BRANCH  11  13
HETATM   13  C   UNK N   1     166.310 159.410 157.371  0.00  0.00     0.029 C 
HETATM   14  C   UNK N   1     166.076 160.613 156.478  0.00  0.00     0.010 C 
ENDBRANCH  11  13
ENDBRANCH   7  10
ENDBRANCH   5   6
ENDBRANCH   4   5
ENDBRANCH   3   4
BRANCH   3  15
HETATM   15  C   UNK N   1     168.893 154.415 153.526  0.00  0.00     0.087 A 
HETATM   16  C   UNK N   1     168.340 153.037 153.846  0.00  0.00     0.027 A 
HETATM   17  C   UNK N   1     168.092 153.646 152.483  0.00  0.00     0.027 A 
ENDBRANCH   3  15
BRANCH   1  18
HETATM   18  C   UNK N   1     167.171 157.764 154.309  0.00  0.00     0.107 C 
BRANCH  18  19
HETATM   19  C   UNK N   1     165.941 158.225 153.520  0.00  0.00     0.042 C 
BRANCH  19  20
HETATM   20  C   UNK N   1     164.772 157.295 153.645  0.00  0.00    -0.093 C 
HETATM   21  C   UNK N   1     164.105 157.231 154.794  0.00  0.00     0.014 C 
HETATM   22  C   UNK N   1     164.390 156.396 152.518  0.00  0.00     0.042 C 
ENDBRANCH  19  20
ENDBRANCH  18  19
ENDBRANCH   1  18
TORSDOF 9
ENDMDL
MODEL 2
REMARK VINA RESULT:      -4.6      3.582      7.419
REMARK  9 active torsions:
REMARK  status: ('A' for Active; 'I' for Inactive)
REMARK    1  A    between atoms: C_2  and  C_4 
REMARK    2  A    between atoms: C_4  and  C_5 
REMARK    3  A    between atoms: C_5  and  C_6 
REMARK       I    between atoms: C_6  and  N_8 
REMARK    4  A    between atoms: N_8  and  C_9 
REMARK    5  A    between atoms: N_8  and  C_19 
REMARK    6  A    between atoms: C_9  and  C_10 
REMARK    7  A    between atoms: C_10  and  N_11 
REMARK       I    between atoms: N_11  and  C_12 
REMARK    8  A    between atoms: C_12  and  C_14 
REMARK    9  A    between atoms: C_15  and  C_17 
ROOT
HETATM    1  C   UNK N   1     166.830 155.293 152.922  0.00  0.00     0.220 C 
HETATM    2  O   UNK N   1     165.951 156.141 152.830  0.00  0.00    -0.273 OA
HETATM    3  N   UNK N   1     167.358 154.997 154.147  0.00  0.00    -0.346 N 
ENDROOT
BRANCH   3   4
HETATM    4  C   UNK N   1     168.392 153.980 154.260  0.00  0.00     0.146 C 
BRANCH   4   5
HETATM    5  C   UNK N   1     167.809 152.716 154.884  0.00  0.00     0.143 C 
BRANCH   5   6
HETATM    6  N   UNK N   1     168.709 151.600 154.715  0.00  0.00    -0.356 N 
HETATM    7  C   UNK N   1     168.350 150.331 155.021  0.00  0.00     0.241 C 
HETATM    8  O   UNK N   1     167.226 150.095 155.444  0.00  0.00    -0.269 OA
HETATM    9  H   UNK N   1     169.614 151.768 154.365  0.00  0.00     0.162 HD
BRANCH   7  10
HETATM   10  C   UNK N   1     169.336 149.242 154.840  0.00  0.00     0.076 C 
HETATM   11  C   UNK N   1     169.441 148.454 153.756  0.00  0.00    -0.079 C 
HETATM   12  C   UNK N   1     170.496 147.401 153.740  0.00  0.00     0.043 C 
BRANCH  11  13
HETATM   13  C   UNK N   1     168.549 148.608 152.561  0.00  0.00     0.029 C 
HETATM   14  C   UNK N   1     169.371 148.724 151.292  0.00  0.00     0.010 C 
ENDBRANCH  11  13
ENDBRANCH   7  10
ENDBRANCH   5   6
ENDBRANCH   4   5
ENDBRANCH   3   4
BRANCH   3  15
HETATM   15  C   UNK N   1     166.890 155.727 155.323  0.00  0.00     0.087 A 
HETATM   16  C   UNK N   1     168.027 155.924 156.311  0.00  0.00     0.027 A 
HETATM   17  C   UNK N   1     167.538 157.096 155.489  0.00  0.00     0.027 A 
ENDBRANCH   3  15
BRANCH   1  18
HETATM   18  C   UNK N   1     167.321 154.586 151.676  0.00  0.00     0.107 C 
BRANCH  18  19
HETATM   19  C   UNK N   1     166.438 154.755 150.435  0.00  0.00     0.042 C 
BRANCH  19  20
HETATM   20  C   UNK N   1     166.609 153.656 149.430  0.00  0.00    -0.093 C 
HETATM   21  C   UNK N   1     165.849 153.642 148.338  0.00  0.00     0.014 C 
HETATM   22  C   UNK N   1     167.573 152.544 149.673  0.00  0.00     0.042 C 
ENDBRANCH  19  20
ENDBRANCH  18  19
ENDBRANCH   1  18
TORSDOF 9
ENDMDL
MODEL 3
REMARK VINA RESULT:      -4.6      2.152      3.986
REMARK  9 active torsions:
REMARK  status: ('A' for Active; 'I' for Inactive)
REMARK    1  A    between atoms: C_2  and  C_4 
REMARK    2  A    between atoms: C_4  and  C_5 
REMARK    3  A    between atoms: C_5  and  C_6 
REMARK       I    between atoms: C_6  and  N_8 
REMARK    4  A    between atoms: N_8  and  C_9 
REMARK    5  A    between atoms: N_8  and  C_19 
REMARK    6  A    between atoms: C_9  and  C_10 
REMARK    7  A    between atoms: C_10  and  N_11 
REMARK       I    between atoms: N_11  and  C_12 
REMARK    8  A    between atoms: C_12  and  C_14 
REMARK    9  A    between atoms: C_15  and  C_17 
ROOT
HETATM    1  C   UNK N   1     169.090 155.081 154.241  0.00  0.00     0.220 C 
HETATM    2  O   UNK N   1     169.559 155.351 153.142  0.00  0.00    -0.273 OA
HETATM    3  N   UNK N   1     168.778 153.785 154.542  0.00  0.00    -0.346 N 
ENDROOT
BRANCH   3   4
HETATM    4  C   UNK N   1     168.234 153.460 155.851  0.00  0.00     0.146 C 
BRANCH   4   5
HETATM    5  C   UNK N   1     166.744 153.160 155.732  0.00  0.00     0.143 C 
BRANCH   5   6
HETATM    6  N   UNK N   1     165.963 154.359 155.922  0.00  0.00    -0.356 N 
HETATM    7  C   UNK N   1     164.618 154.328 156.071  0.00  0.00     0.241 C 
HETATM    8  O   UNK N   1     164.022 153.259 156.062  0.00  0.00    -0.269 OA
HETATM    9  H   UNK N   1     166.424 155.228 155.944  0.00  0.00     0.162 HD
BRANCH   7  10
HETATM   10  C   UNK N   1     163.884 155.603 156.241  0.00  0.00     0.076 C 
HETATM   11  C   UNK N   1     163.618 156.488 155.266  0.00  0.00    -0.079 C 
HETATM   12  C   UNK N   1     162.864 157.726 155.613  0.00  0.00     0.043 C 
BRANCH  11  13
HETATM   13  C   UNK N   1     164.037 156.267 153.843  0.00  0.00     0.029 C 
HETATM   14  C   UNK N   1     164.448 157.576 153.198  0.00  0.00     0.010 C 
ENDBRANCH  11  13
ENDBRANCH   7  10
ENDBRANCH   5   6
ENDBRANCH   4   5
ENDBRANCH   3   4
BRANCH   3  15
HETATM   15  C   UNK N   1     168.974 152.748 153.531  0.00  0.00     0.087 A 
HETATM   16  C   UNK N   1     170.276 152.007 153.779  0.00  0.00     0.027 A 
HETATM   17  C   UNK N   1     168.959 151.333 154.097  0.00  0.00     0.027 A 
ENDBRANCH   3  15
BRANCH   1  18
HETATM   18  C   UNK N   1     168.861 156.187 155.249  0.00  0.00     0.107 C 
BRANCH  18  19
HETATM   19  C   UNK N   1     167.684 157.120 154.944  0.00  0.00     0.042 C 
BRANCH  19  20
HETATM   20  C   UNK N   1     167.148 157.817 156.157  0.00  0.00    -0.093 C 
HETATM   21  C   UNK N   1     167.315 157.267 157.357  0.00  0.00     0.014 C 
HETATM   22  C   UNK N   1     166.375 159.086 156.029  0.00  0.00     0.042 C 
ENDBRANCH  19  20
ENDBRANCH  18  19
ENDBRANCH   1  18
TORSDOF 9
ENDMDL
MODEL 4
REMARK VINA RESULT:      -4.6      2.786      4.968
REMARK  9 active torsions:
REMARK  status: ('A' for Active; 'I' for Inactive)
REMARK    1  A    between atoms: C_2  and  C_4 
REMARK    2  A    between atoms: C_4  and  C_5 
REMARK    3  A    between atoms: C_5  and  C_6 
REMARK       I    between atoms: C_6  and  N_8 
REMARK    4  A    between atoms: N_8  and  C_9 
REMARK    5  A    between atoms: N_8  and  C_19 
REMARK    6  A    between atoms: C_9  and  C_10 
REMARK    7  A    between atoms: C_10  and  N_11 
REMARK       I    between atoms: N_11  and  C_12 
REMARK    8  A    between atoms: C_12  and  C_14 
REMARK    9  A    between atoms: C_15  and  C_17 
ROOT
HETATM    1  C   UNK N   1     168.278 155.235 153.273  0.00  0.00     0.220 C 
HETATM    2  O   UNK N   1     169.401 155.699 153.115  0.00  0.00    -0.273 OA
HETATM    3  N   UNK N   1     167.497 155.690 154.298  0.00  0.00    -0.346 N 
ENDROOT
BRANCH   3   4
HETATM    4  C   UNK N   1     166.159 155.151 154.479  0.00  0.00     0.146 C 
BRANCH   4   5
HETATM    5  C   UNK N   1     165.133 156.092 153.855  0.00  0.00     0.143 C 
BRANCH   5   6
HETATM    6  N   UNK N   1     163.935 156.148 154.658  0.00  0.00    -0.356 N 
HETATM    7  C   UNK N   1     163.594 157.248 155.370  0.00  0.00     0.241 C 
HETATM    8  O   UNK N   1     164.302 158.245 155.337  0.00  0.00    -0.269 OA
HETATM    9  H   UNK N   1     163.346 155.360 154.689  0.00  0.00     0.162 HD
BRANCH   7  10
HETATM   10  C   UNK N   1     162.359 157.222 156.187  0.00  0.00     0.076 C 
HETATM   11  C   UNK N   1     162.275 156.814 157.464  0.00  0.00    -0.079 C 
HETATM   12  C   UNK N   1     160.947 156.854 158.140  0.00  0.00     0.043 C 
BRANCH  11  13
HETATM   13  C   UNK N   1     163.470 156.338 158.237  0.00  0.00     0.029 C 
HETATM   14  C   UNK N   1     163.562 154.825 158.198  0.00  0.00     0.010 C 
ENDBRANCH  11  13
ENDBRANCH   7  10
ENDBRANCH   5   6
ENDBRANCH   4   5
ENDBRANCH   3   4
BRANCH   3  15
HETATM   15  C   UNK N   1     168.032 156.696 155.213  0.00  0.00     0.087 A 
HETATM   16  C   UNK N   1     167.296 156.648 156.541  0.00  0.00     0.027 A 
HETATM   17  C   UNK N   1     168.704 156.104 156.447  0.00  0.00     0.027 A 
ENDBRANCH   3  15
BRANCH   1  18
HETATM   18  C   UNK N   1     167.772 154.163 152.331  0.00  0.00     0.107 C 
BRANCH  18  19
HETATM   19  C   UNK N   1     167.150 154.675 151.027  0.00  0.00     0.042 C 
BRANCH  19  20
HETATM   20  C   UNK N   1     166.991 153.609 149.986  0.00  0.00    -0.093 C 
HETATM   21  C   UNK N   1     167.819 152.568 149.983  0.00  0.00     0.014 C 
HETATM   22  C   UNK N   1     165.960 153.735 148.916  0.00  0.00     0.042 C 
ENDBRANCH  19  20
ENDBRANCH  18  19
ENDBRANCH   1  18
TORSDOF 9
ENDMDL
MODEL 5
REMARK VINA RESULT:      -4.5      2.865      5.159
REMARK  9 active torsions:
REMARK  status: ('A' for Active; 'I' for Inactive)
REMARK    1  A    between atoms: C_2  and  C_4 
REMARK    2  A    between atoms: C_4  and  C_5 
REMARK    3  A    between atoms: C_5  and  C_6 
REMARK       I    between atoms: C_6  and  N_8 
REMARK    4  A    between atoms: N_8  and  C_9 
REMARK    5  A    between atoms: N_8  and  C_19 
REMARK    6  A    between atoms: C_9  and  C_10 
REMARK    7  A    between atoms: C_10  and  N_11 
REMARK       I    between atoms: N_11  and  C_12 
REMARK    8  A    between atoms: C_12  and  C_14 
REMARK    9  A    between atoms: C_15  and  C_17 
ROOT
HETATM    1  C   UNK N   1     168.793 151.705 151.498  0.00  0.00     0.220 C 
HETATM    2  O   UNK N   1     169.263 150.806 150.813  0.00  0.00    -0.273 OA
HETATM    3  N   UNK N   1     169.029 151.724 152.844  0.00  0.00    -0.346 N 
ENDROOT
BRANCH   3   4
HETATM    4  C   UNK N   1     168.482 152.799 153.657  0.00  0.00     0.146 C 
BRANCH   4   5
HETATM    5  C   UNK N   1     169.471 153.959 153.714  0.00  0.00     0.143 C 
BRANCH   5   6
HETATM    6  N   UNK N   1     168.848 155.136 154.270  0.00  0.00    -0.356 N 
HETATM    7  C   UNK N   1     168.307 156.102 153.491  0.00  0.00     0.241 C 
HETATM    8  O   UNK N   1     168.322 155.990 152.272  0.00  0.00    -0.269 OA
HETATM    9  H   UNK N   1     168.816 155.240 155.248  0.00  0.00     0.162 HD
BRANCH   7  10
HETATM   10  C   UNK N   1     167.703 157.291 154.135  0.00  0.00     0.076 C 
HETATM   11  C   UNK N   1     166.409 157.428 154.468  0.00  0.00    -0.079 C 
HETATM   12  C   UNK N   1     165.968 158.697 155.113  0.00  0.00     0.043 C 
BRANCH  11  13
HETATM   13  C   UNK N   1     165.399 156.345 154.229  0.00  0.00     0.029 C 
HETATM   14  C   UNK N   1     164.626 156.608 152.951  0.00  0.00     0.010 C 
ENDBRANCH  11  13
ENDBRANCH   7  10
ENDBRANCH   5   6
ENDBRANCH   4   5
ENDBRANCH   3   4
BRANCH   3  15
HETATM   15  C   UNK N   1     169.808 150.646 153.449  0.00  0.00     0.087 A 
HETATM   16  C   UNK N   1     169.554 150.584 154.945  0.00  0.00     0.027 A 
HETATM   17  C   UNK N   1     168.953 149.532 154.040  0.00  0.00     0.027 A 
ENDBRANCH   3  15
BRANCH   1  18
HETATM   18  C   UNK N   1     167.954 152.783 150.844  0.00  0.00     0.107 C 
BRANCH  18  19
HETATM   19  C   UNK N   1     167.659 152.572 149.355  0.00  0.00     0.042 C 
BRANCH  19  20
HETATM   20  C   UNK N   1     166.971 153.739 148.715  0.00  0.00    -0.093 C 
HETATM   21  C   UNK N   1     165.660 153.688 148.498  0.00  0.00     0.014 C 
HETATM   22  C   UNK N   1     167.749 154.927 148.259  0.00  0.00     0.042 C 
ENDBRANCH  19  20
ENDBRANCH  18  19
ENDBRANCH   1  18
TORSDOF 9
ENDMDL
MODEL 6
REMARK VINA RESULT:      -4.4      3.910      6.097
REMARK  9 active torsions:
REMARK  status: ('A' for Active; 'I' for Inactive)
REMARK    1  A    between atoms: C_2  and  C_4 
REMARK    2  A    between atoms: C_4  and  C_5 
REMARK    3  A    between atoms: C_5  and  C_6 
REMARK       I    between atoms: C_6  and  N_8 
REMARK    4  A    between atoms: N_8  and  C_9 
REMARK    5  A    between atoms: N_8  and  C_19 
REMARK    6  A    between atoms: C_9  and  C_10 
REMARK    7  A    between atoms: C_10  and  N_11 
REMARK       I    between atoms: N_11  and  C_12 
REMARK    8  A    between atoms: C_12  and  C_14 
REMARK    9  A    between atoms: C_15  and  C_17 
ROOT
HETATM    1  C   UNK N   1     168.503 150.611 150.198  0.00  0.00     0.220 C 
HETATM    2  O   UNK N   1     167.963 149.859 149.396  0.00  0.00    -0.273 OA
HETATM    3  N   UNK N   1     169.157 150.089 151.279  0.00  0.00    -0.346 N 
ENDROOT
BRANCH   3   4
HETATM    4  C   UNK N   1     169.810 150.979 152.225  0.00  0.00     0.146 C 
BRANCH   4   5
HETATM    5  C   UNK N   1     168.823 151.393 153.312  0.00  0.00     0.143 C 
BRANCH   5   6
HETATM    6  N   UNK N   1     168.366 152.746 153.100  0.00  0.00    -0.356 N 
HETATM    7  C   UNK N   1     167.679 153.432 154.044  0.00  0.00     0.241 C 
HETATM    8  O   UNK N   1     167.438 152.914 155.126  0.00  0.00    -0.269 OA
HETATM    9  H   UNK N   1     168.561 153.184 152.240  0.00  0.00     0.162 HD
BRANCH   7  10
HETATM   10  C   UNK N   1     167.226 154.809 153.744  0.00  0.00     0.076 C 
HETATM   11  C   UNK N   1     167.873 155.937 154.085  0.00  0.00    -0.079 C 
HETATM   12  C   UNK N   1     167.272 157.246 153.702  0.00  0.00     0.043 C 
BRANCH  11  13
HETATM   13  C   UNK N   1     169.180 155.923 154.819  0.00  0.00     0.029 C 
HETATM   14  C   UNK N   1     168.959 156.119 156.307  0.00  0.00     0.010 C 
ENDBRANCH  11  13
ENDBRANCH   7  10
ENDBRANCH   5   6
ENDBRANCH   4   5
ENDBRANCH   3   4
BRANCH   3  15
HETATM   15  C   UNK N   1     169.167 148.641 151.479  0.00  0.00     0.087 A 
HETATM   16  C   UNK N   1     170.356 148.233 152.330  0.00  0.00     0.027 A 
HETATM   17  C   UNK N   1     168.968 148.224 152.931  0.00  0.00     0.027 A 
ENDBRANCH   3  15
BRANCH   1  18
HETATM   18  C   UNK N   1     168.436 152.108 149.982  0.00  0.00     0.107 C 
BRANCH  18  19
HETATM   19  C   UNK N   1     167.767 152.554 148.678  0.00  0.00     0.042 C 
BRANCH  19  20
HETATM   20  C   UNK N   1     166.673 153.557 148.884  0.00  0.00    -0.093 C 
HETATM   21  C   UNK N   1     165.715 153.679 147.970  0.00  0.00     0.014 C 
HETATM   22  C   UNK N   1     166.683 154.462 150.069  0.00  0.00     0.042 C 
ENDBRANCH  19  20
ENDBRANCH  18  19
ENDBRANCH   1  18
TORSDOF 9
ENDMDL
MODEL 7
REMARK VINA RESULT:      -4.3      2.953      5.544
REMARK  9 active torsions:
REMARK  status: ('A' for Active; 'I' for Inactive)
REMARK    1  A    between atoms: C_2  and  C_4 
REMARK    2  A    between atoms: C_4  and  C_5 
REMARK    3  A    between atoms: C_5  and  C_6 
REMARK       I    between atoms: C_6  and  N_8 
REMARK    4  A    between atoms: N_8  and  C_9 
REMARK    5  A    between atoms: N_8  and  C_19 
REMARK    6  A    between atoms: C_9  and  C_10 
REMARK    7  A    between atoms: C_10  and  N_11 
REMARK       I    between atoms: N_11  and  C_12 
REMARK    8  A    between atoms: C_12  and  C_14 
REMARK    9  A    between atoms: C_15  and  C_17 
ROOT
HETATM    1  C   UNK N   1     168.448 154.170 153.265  0.00  0.00     0.220 C 
HETATM    2  O   UNK N   1     168.431 154.373 152.057  0.00  0.00    -0.273 OA
HETATM    3  N   UNK N   1     167.705 154.963 154.095  0.00  0.00    -0.346 N 
ENDROOT
BRANCH   3   4
HETATM    4  C   UNK N   1     167.714 154.715 155.528  0.00  0.00     0.146 C 
BRANCH   4   5
HETATM    5  C   UNK N   1     166.549 153.805 155.902  0.00  0.00     0.143 C 
BRANCH   5   6
HETATM    6  N   UNK N   1     165.642 154.478 156.802  0.00  0.00    -0.356 N 
HETATM    7  C   UNK N   1     164.530 153.879 157.288  0.00  0.00     0.241 C 
HETATM    8  O   UNK N   1     164.270 152.723 156.979  0.00  0.00    -0.269 OA
HETATM    9  H   UNK N   1     165.840 155.404 157.072  0.00  0.00     0.162 HD
BRANCH   7  10
HETATM   10  C   UNK N   1     163.638 154.641 158.190  0.00  0.00     0.076 C 
HETATM   11  C   UNK N   1     162.657 155.473 157.801  0.00  0.00    -0.079 C 
HETATM   12  C   UNK N   1     161.850 156.164 158.847  0.00  0.00     0.043 C 
BRANCH  11  13
HETATM   13  C   UNK N   1     162.336 155.717 156.356  0.00  0.00     0.029 C 
HETATM   14  C   UNK N   1     162.945 157.025 155.888  0.00  0.00     0.010 C 
ENDBRANCH  11  13
ENDBRANCH   7  10
ENDBRANCH   5   6
ENDBRANCH   4   5
ENDBRANCH   3   4
BRANCH   3  15
HETATM   15  C   UNK N   1     166.932 156.066 153.527  0.00  0.00     0.087 A 
HETATM   16  C   UNK N   1     166.708 157.146 154.571  0.00  0.00     0.027 A 
HETATM   17  C   UNK N   1     167.703 157.378 153.455  0.00  0.00     0.027 A 
ENDBRANCH   3  15
BRANCH   1  18
HETATM   18  C   UNK N   1     169.295 153.045 153.823  0.00  0.00     0.107 C 
BRANCH  18  19
HETATM   19  C   UNK N   1     169.213 151.721 153.056  0.00  0.00     0.042 C 
BRANCH  19  20
HETATM   20  C   UNK N   1     170.390 150.824 153.293  0.00  0.00    -0.093 C 
HETATM   21  C   UNK N   1     170.806 150.604 154.537  0.00  0.00     0.014 C 
HETATM   22  C   UNK N   1     171.139 150.230 152.149  0.00  0.00     0.042 C 
ENDBRANCH  19  20
ENDBRANCH  18  19
ENDBRANCH   1  18
TORSDOF 9
ENDMDL
MODEL 8
REMARK VINA RESULT:      -4.3      2.284      5.057
REMARK  9 active torsions:
REMARK  status: ('A' for Active; 'I' for Inactive)
REMARK    1  A    between atoms: C_2  and  C_4 
REMARK    2  A    between atoms: C_4  and  C_5 
REMARK    3  A    between atoms: C_5  and  C_6 
REMARK       I    between atoms: C_6  and  N_8 
REMARK    4  A    between atoms: N_8  and  C_9 
REMARK    5  A    between atoms: N_8  and  C_19 
REMARK    6  A    between atoms: C_9  and  C_10 
REMARK    7  A    between atoms: C_10  and  N_11 
REMARK       I    between atoms: N_11  and  C_12 
REMARK    8  A    between atoms: C_12  and  C_14 
REMARK    9  A    between atoms: C_15  and  C_17 
ROOT
HETATM    1  C   UNK N   1     166.412 158.944 155.899  0.00  0.00     0.220 C 
HETATM    2  O   UNK N   1     165.693 159.934 155.851  0.00  0.00    -0.273 OA
HETATM    3  N   UNK N   1     167.119 158.675 157.037  0.00  0.00    -0.346 N 
ENDROOT
BRANCH   3   4
HETATM    4  C   UNK N   1     167.962 157.492 157.100  0.00  0.00     0.146 C 
BRANCH   4   5
HETATM    5  C   UNK N   1     167.280 156.415 157.938  0.00  0.00     0.143 C 
BRANCH   5   6
HETATM    6  N   UNK N   1     166.126 155.887 157.250  0.00  0.00    -0.356 N 
HETATM    7  C   UNK N   1     166.097 154.629 156.750  0.00  0.00     0.241 C 
HETATM    8  O   UNK N   1     167.065 153.892 156.885  0.00  0.00    -0.269 OA
HETATM    9  H   UNK N   1     165.333 156.460 157.142  0.00  0.00     0.162 HD
BRANCH   7  10
HETATM   10  C   UNK N   1     164.884 154.165 156.039  0.00  0.00     0.076 C 
HETATM   11  C   UNK N   1     163.697 154.795 156.027  0.00  0.00    -0.079 C 
HETATM   12  C   UNK N   1     162.575 154.186 155.256  0.00  0.00     0.043 C 
BRANCH  11  13
HETATM   13  C   UNK N   1     163.466 156.091 156.745  0.00  0.00     0.029 C 
HETATM   14  C   UNK N   1     162.156 156.717 156.308  0.00  0.00     0.010 C 
ENDBRANCH  11  13
ENDBRANCH   7  10
ENDBRANCH   5   6
ENDBRANCH   4   5
ENDBRANCH   3   4
BRANCH   3  15
HETATM   15  C   UNK N   1     167.033 159.599 158.167  0.00  0.00     0.087 A 
HETATM   16  C   UNK N   1     168.396 159.766 158.817  0.00  0.00     0.027 A 
HETATM   17  C   UNK N   1     167.830 160.882 157.967  0.00  0.00     0.027 A 
ENDBRANCH   3  15
BRANCH   1  18
HETATM   18  C   UNK N   1     166.509 158.032 154.694  0.00  0.00     0.107 C 
BRANCH  18  19
HETATM   19  C   UNK N   1     165.192 157.786 153.949  0.00  0.00     0.042 C 
BRANCH  19  20
HETATM   20  C   UNK N   1     165.228 156.577 153.064  0.00  0.00    -0.093 C 
HETATM   21  C   UNK N   1     164.169 156.282 152.314  0.00  0.00     0.014 C 
HETATM   22  C   UNK N   1     166.409 155.667 153.063  0.00  0.00     0.042 C 
ENDBRANCH  19  20
ENDBRANCH  18  19
ENDBRANCH   1  18
TORSDOF 9
ENDMDL
MODEL 9
REMARK VINA RESULT:      -4.3      2.754      3.893
REMARK  9 active torsions:
REMARK  status: ('A' for Active; 'I' for Inactive)
REMARK    1  A    between atoms: C_2  and  C_4 
REMARK    2  A    between atoms: C_4  and  C_5 
REMARK    3  A    between atoms: C_5  and  C_6 
REMARK       I    between atoms: C_6  and  N_8 
REMARK    4  A    between atoms: N_8  and  C_9 
REMARK    5  A    between atoms: N_8  and  C_19 
REMARK    6  A    between atoms: C_9  and  C_10 
REMARK    7  A    between atoms: C_10  and  N_11 
REMARK       I    between atoms: N_11  and  C_12 
REMARK    8  A    between atoms: C_12  and  C_14 
REMARK    9  A    between atoms: C_15  and  C_17 
ROOT
HETATM    1  C   UNK N   1     168.866 154.923 154.118  0.00  0.00     0.220 C 
HETATM    2  O   UNK N   1     169.455 154.766 153.056  0.00  0.00    -0.273 OA
HETATM    3  N   UNK N   1     168.279 153.852 154.732  0.00  0.00    -0.346 N 
ENDROOT
BRANCH   3   4
HETATM    4  C   UNK N   1     167.591 154.034 156.000  0.00  0.00     0.146 C 
BRANCH   4   5
HETATM    5  C   UNK N   1     166.096 153.795 155.816  0.00  0.00     0.143 C 
BRANCH   5   6
HETATM    6  N   UNK N   1     165.334 154.557 156.778  0.00  0.00    -0.356 N 
HETATM    7  C   UNK N   1     164.334 154.006 157.504  0.00  0.00     0.241 C 
HETATM    8  O   UNK N   1     164.056 152.821 157.369  0.00  0.00    -0.269 OA
HETATM    9  H   UNK N   1     165.550 155.508 156.909  0.00  0.00     0.162 HD
BRANCH   7  10
HETATM   10  C   UNK N   1     163.584 154.856 158.456  0.00  0.00     0.076 C 
HETATM   11  C   UNK N   1     162.576 155.686 158.136  0.00  0.00    -0.079 C 
HETATM   12  C   UNK N   1     161.928 156.473 159.225  0.00  0.00     0.043 C 
BRANCH  11  13
HETATM   13  C   UNK N   1     162.071 155.835 156.732  0.00  0.00     0.029 C 
HETATM   14  C   UNK N   1     162.567 157.132 156.122  0.00  0.00     0.010 C 
ENDBRANCH  11  13
ENDBRANCH   7  10
ENDBRANCH   5   6
ENDBRANCH   4   5
ENDBRANCH   3   4
BRANCH   3  15
HETATM   15  C   UNK N   1     168.333 152.541 154.087  0.00  0.00     0.087 A 
HETATM   16  C   UNK N   1     169.742 151.979 154.148  0.00  0.00     0.027 A 
HETATM   17  C   UNK N   1     168.668 151.404 155.044  0.00  0.00     0.027 A 
ENDBRANCH   3  15
BRANCH   1  18
HETATM   18  C   UNK N   1     168.794 156.304 154.736  0.00  0.00     0.107 C 
BRANCH  18  19
HETATM   19  C   UNK N   1     167.935 157.319 153.975  0.00  0.00     0.042 C 
BRANCH  19  20
HETATM   20  C   UNK N   1     166.510 157.355 154.437  0.00  0.00    -0.093 C 
HETATM   21  C   UNK N   1     166.216 157.894 155.617  0.00  0.00     0.014 C 
HETATM   22  C   UNK N   1     165.428 156.735 153.619  0.00  0.00     0.042 C 
ENDBRANCH  19  20
ENDBRANCH  18  19
ENDBRANCH   1  18
TORSDOF 9
ENDMDL
