MODEL 1
REMARK VINA RESULT:      -6.4      0.000      0.000
REMARK  5 active torsions:
REMARK  status: ('A' for Active; 'I' for Inactive)
REMARK    1  A    between atoms: C_7  and  C_8 
REMARK    2  A    between atoms: C_11  and  N_12 
REMARK    3  A    between atoms: N_12  and  C_13 
REMARK    4  A    between atoms: C_13  and  C_14 
REMARK    5  A    between atoms: C_20  and  C_21 
ROOT
HETATM    1  N   UNK N   1     168.698 155.752 157.367  0.00  0.00    -0.386 N 
HETATM    2  H   UNK N   1     169.603 155.692 157.750  0.00  0.00     0.160 HD
ENDROOT
BRANCH   1   3
HETATM    3  C   UNK N   1     168.500 155.309 156.036  0.00  0.00     0.028 A 
HETATM    4  C   UNK N   1     169.288 155.799 154.984  0.00  0.00     0.030 A 
HETATM    5  C   UNK N   1     169.077 155.343 153.681  0.00  0.00     0.018 A 
HETATM    6  C   UNK N   1     168.079 154.399 153.418  0.00  0.00     0.017 A 
HETATM    7  C   UNK N   1     167.290 153.913 154.469  0.00  0.00     0.018 A 
HETATM    8  C   UNK N   1     167.501 154.367 155.773  0.00  0.00     0.030 A 
BRANCH   6   9
HETATM    9  C   UNK N   1     167.862 153.925 152.047  0.00  0.00     0.174 A 
HETATM   10  N   UNK N   1     168.031 152.651 151.637  0.00  0.00    -0.277 N 
HETATM   11  N   UNK N   1     167.737 152.628 150.347  0.00  0.00    -0.281 N 
ATOM     12  HN  UNK N   1     168.326 151.860 152.210  1.00  0.00     0.189 HD
HETATM   13  C   UNK N   1     167.399 153.886 150.008  0.00  0.00     0.136 A 
ATOM     14  HN  UNK N   1     167.762 151.817 149.730  1.00  0.00     0.189 HD
HETATM   15  C   UNK N   1     166.995 154.312 148.643  0.00  0.00     0.099 C 
HETATM   16  O   UNK N   1     167.475 154.680 151.047  0.00  0.00    -0.278 OA
ENDBRANCH   6   9
ENDBRANCH   1   3
BRANCH   1  17
HETATM   17  C   UNK N   1     167.638 156.289 158.189  0.00  0.00     0.162 C 
BRANCH  17  18
HETATM   18  C   UNK N   1     167.430 157.758 157.951  0.00  0.00     0.005 A 
HETATM   19  C   UNK N   1     167.925 158.807 158.707  0.00  0.00     0.120 A 
HETATM   20  N   UNK N   1     167.464 159.946 158.160  0.00  0.00    -0.307 N 
HETATM   21  C   UNK N   1     167.752 161.286 158.635  0.00  0.00     0.177 C 
HETATM   22  N   UNK N   1     166.700 159.682 157.112  0.00  0.00    -0.298 N 
HETATM   23  C   UNK N   1     166.664 158.345 156.954  0.00  0.00     0.069 A 
ATOM     24  HN  UNK N   1     166.224 160.369 156.528  1.00  0.00     0.187 HD
BRANCH  23  25
HETATM   25  C   UNK N   1     165.896 157.672 155.885  0.00  0.00     0.008 A 
HETATM   26  C   UNK N   1     166.253 157.808 154.538  0.00  0.00     0.016 A 
HETATM   27  C   UNK N   1     165.510 157.165 153.548  0.00  0.00     0.018 A 
HETATM   28  C   UNK N   1     164.419 156.377 153.919  0.00  0.00     0.087 A 
HETATM   29  N   UNK N   1     164.085 156.247 155.231  0.00  0.00    -0.374 N 
HETATM   30  C   UNK N   1     164.789 156.878 156.209  0.00  0.00     0.101 A 
ATOM     31  HN  UNK N   1     163.288 155.664 155.487  1.00  0.00     0.164 HD
ENDBRANCH  23  25
ENDBRANCH  17  18
ENDBRANCH   1  17
TORSDOF 5
ENDMDL
MODEL 2
REMARK VINA RESULT:      -6.0      1.564      1.872
REMARK  5 active torsions:
REMARK  status: ('A' for Active; 'I' for Inactive)
REMARK    1  A    between atoms: C_7  and  C_8 
REMARK    2  A    between atoms: C_11  and  N_12 
REMARK    3  A    between atoms: N_12  and  C_13 
REMARK    4  A    between atoms: C_13  and  C_14 
REMARK    5  A    between atoms: C_20  and  C_21 
ROOT
HETATM    1  N   UNK N   1     168.856 155.661 157.373  0.00  0.00    -0.386 N 
HETATM    2  H   UNK N   1     169.211 155.008 158.019  0.00  0.00     0.160 HD
ENDROOT
BRANCH   1   3
HETATM    3  C   UNK N   1     168.622 155.234 156.043  0.00  0.00     0.028 A 
HETATM    4  C   UNK N   1     168.950 156.052 154.951  0.00  0.00     0.030 A 
HETATM    5  C   UNK N   1     168.715 155.607 153.648  0.00  0.00     0.018 A 
HETATM    6  C   UNK N   1     168.151 154.347 153.426  0.00  0.00     0.017 A 
HETATM    7  C   UNK N   1     167.821 153.532 154.516  0.00  0.00     0.018 A 
HETATM    8  C   UNK N   1     168.057 153.976 155.820  0.00  0.00     0.030 A 
BRANCH   6   9
HETATM    9  C   UNK N   1     167.906 153.886 152.055  0.00  0.00     0.174 A 
HETATM   10  N   UNK N   1     168.052 152.614 151.633  0.00  0.00    -0.277 N 
HETATM   11  N   UNK N   1     167.738 152.604 150.348  0.00  0.00    -0.281 N 
ATOM     12  HN  UNK N   1     168.347 151.814 152.195  1.00  0.00     0.189 HD
HETATM   13  C   UNK N   1     167.410 153.868 150.023  0.00  0.00     0.136 A 
ATOM     14  HN  UNK N   1     167.743 151.797 149.724  1.00  0.00     0.189 HD
HETATM   15  C   UNK N   1     166.990 154.309 148.668  0.00  0.00     0.099 C 
HETATM   16  O   UNK N   1     167.513 154.653 151.066  0.00  0.00    -0.278 OA
ENDBRANCH   6   9
ENDBRANCH   1   3
BRANCH   1  17
HETATM   17  C   UNK N   1     168.601 157.009 157.827  0.00  0.00     0.162 C 
BRANCH  17  18
HETATM   18  C   UNK N   1     167.241 157.144 158.452  0.00  0.00     0.005 A 
HETATM   19  C   UNK N   1     166.926 157.066 159.798  0.00  0.00     0.120 A 
HETATM   20  N   UNK N   1     165.592 157.206 159.905  0.00  0.00    -0.307 N 
HETATM   21  C   UNK N   1     164.841 157.196 161.145  0.00  0.00     0.177 C 
HETATM   22  N   UNK N   1     165.044 157.355 158.710  0.00  0.00    -0.298 N 
HETATM   23  C   UNK N   1     166.032 157.328 157.795  0.00  0.00     0.069 A 
ATOM     24  HN  UNK N   1     164.049 157.472 158.516  1.00  0.00     0.187 HD
BRANCH  23  25
HETATM   25  C   UNK N   1     165.800 157.457 156.341  0.00  0.00     0.008 A 
HETATM   26  C   UNK N   1     165.269 156.399 155.593  0.00  0.00     0.016 A 
HETATM   27  C   UNK N   1     165.063 156.546 154.221  0.00  0.00     0.018 A 
HETATM   28  C   UNK N   1     165.378 157.761 153.611  0.00  0.00     0.087 A 
HETATM   29  N   UNK N   1     165.888 158.783 154.349  0.00  0.00    -0.374 N 
HETATM   30  C   UNK N   1     166.109 158.654 155.685  0.00  0.00     0.101 A 
ATOM     31  HN  UNK N   1     166.109 159.668 153.890  1.00  0.00     0.164 HD
ENDBRANCH  23  25
ENDBRANCH  17  18
ENDBRANCH   1  17
TORSDOF 5
ENDMDL
MODEL 3
REMARK VINA RESULT:      -5.9      1.939      3.724
REMARK  5 active torsions:
REMARK  status: ('A' for Active; 'I' for Inactive)
REMARK    1  A    between atoms: C_7  and  C_8 
REMARK    2  A    between atoms: C_11  and  N_12 
REMARK    3  A    between atoms: N_12  and  C_13 
REMARK    4  A    between atoms: C_13  and  C_14 
REMARK    5  A    between atoms: C_20  and  C_21 
ROOT
HETATM    1  N   UNK N   1     165.705 158.733 154.537  0.00  0.00    -0.386 N 
HETATM    2  H   UNK N   1     165.382 159.517 154.036  0.00  0.00     0.160 HD
ENDROOT
BRANCH   1   3
HETATM    3  C   UNK N   1     166.144 157.601 153.808  0.00  0.00     0.028 A 
HETATM    4  C   UNK N   1     165.238 156.809 153.086  0.00  0.00     0.030 A 
HETATM    5  C   UNK N   1     165.694 155.700 152.369  0.00  0.00     0.018 A 
HETATM    6  C   UNK N   1     167.054 155.373 152.370  0.00  0.00     0.017 A 
HETATM    7  C   UNK N   1     167.957 156.162 153.094  0.00  0.00     0.018 A 
HETATM    8  C   UNK N   1     167.502 157.272 153.810  0.00  0.00     0.030 A 
BRANCH   6   9
HETATM    9  C   UNK N   1     167.528 154.207 151.617  0.00  0.00     0.174 A 
HETATM   10  N   UNK N   1     167.928 153.044 152.169  0.00  0.00    -0.277 N 
HETATM   11  N   UNK N   1     168.275 152.251 151.168  0.00  0.00    -0.281 N 
ATOM     12  HN  UNK N   1     167.956 152.819 153.163  1.00  0.00     0.189 HD
HETATM   13  C   UNK N   1     168.078 152.952 150.036  0.00  0.00     0.136 A 
ATOM     14  HN  UNK N   1     168.624 151.295 151.239  1.00  0.00     0.189 HD
HETATM   15  C   UNK N   1     168.342 152.437 148.668  0.00  0.00     0.099 C 
HETATM   16  O   UNK N   1     167.621 154.149 150.309  0.00  0.00    -0.278 OA
ENDBRANCH   6   9
ENDBRANCH   1   3
BRANCH   1  17
HETATM   17  C   UNK N   1     165.708 158.794 155.981  0.00  0.00     0.162 C 
BRANCH  17  18
HETATM   18  C   UNK N   1     164.610 157.963 156.582  0.00  0.00     0.005 A 
HETATM   19  C   UNK N   1     163.358 158.394 156.983  0.00  0.00     0.120 A 
HETATM   20  N   UNK N   1     162.713 157.330 157.497  0.00  0.00    -0.307 N 
HETATM   21  C   UNK N   1     161.364 157.338 158.026  0.00  0.00     0.177 C 
HETATM   22  N   UNK N   1     163.485 156.256 157.455  0.00  0.00    -0.298 N 
HETATM   23  C   UNK N   1     164.657 156.611 156.892  0.00  0.00     0.069 A 
ATOM     24  HN  UNK N   1     163.237 155.325 157.789  1.00  0.00     0.187 HD
BRANCH  23  25
HETATM   25  C   UNK N   1     165.778 155.671 156.686  0.00  0.00     0.008 A 
HETATM   26  C   UNK N   1     165.632 154.527 155.891  0.00  0.00     0.016 A 
HETATM   27  C   UNK N   1     166.705 153.655 155.715  0.00  0.00     0.018 A 
HETATM   28  C   UNK N   1     167.926 153.943 156.328  0.00  0.00     0.087 A 
HETATM   29  N   UNK N   1     168.058 155.059 157.093  0.00  0.00    -0.374 N 
HETATM   30  C   UNK N   1     167.019 155.915 157.288  0.00  0.00     0.101 A 
ATOM     31  HN  UNK N   1     168.958 155.260 157.531  1.00  0.00     0.164 HD
ENDBRANCH  23  25
ENDBRANCH  17  18
ENDBRANCH   1  17
TORSDOF 5
ENDMDL
MODEL 4
REMARK VINA RESULT:      -5.9      3.529      7.831
REMARK  5 active torsions:
REMARK  status: ('A' for Active; 'I' for Inactive)
REMARK    1  A    between atoms: C_7  and  C_8 
REMARK    2  A    between atoms: C_11  and  N_12 
REMARK    3  A    between atoms: N_12  and  C_13 
REMARK    4  A    between atoms: C_13  and  C_14 
REMARK    5  A    between atoms: C_20  and  C_21 
ROOT
HETATM    1  N   UNK N   1     167.503 155.638 154.604  0.00  0.00    -0.386 N 
HETATM    2  H   UNK N   1     167.884 156.481 154.266  0.00  0.00     0.160 HD
ENDROOT
BRANCH   1   3
HETATM    3  C   UNK N   1     166.168 155.646 155.080  0.00  0.00     0.028 A 
HETATM    4  C   UNK N   1     165.879 155.399 156.430  0.00  0.00     0.030 A 
HETATM    5  C   UNK N   1     164.556 155.418 156.877  0.00  0.00     0.018 A 
HETATM    6  C   UNK N   1     163.514 155.679 155.981  0.00  0.00     0.017 A 
HETATM    7  C   UNK N   1     163.804 155.922 154.632  0.00  0.00     0.018 A 
HETATM    8  C   UNK N   1     165.127 155.905 154.185  0.00  0.00     0.030 A 
BRANCH   6   9
HETATM    9  C   UNK N   1     162.126 155.697 156.456  0.00  0.00     0.174 A 
HETATM   10  N   UNK N   1     161.129 154.944 155.948  0.00  0.00    -0.277 N 
HETATM   11  N   UNK N   1     160.041 155.243 156.639  0.00  0.00    -0.281 N 
ATOM     12  HN  UNK N   1     161.200 154.275 155.181  1.00  0.00     0.189 HD
HETATM   13  C   UNK N   1     160.405 156.169 157.547  0.00  0.00     0.136 A 
ATOM     14  HN  UNK N   1     159.109 154.850 156.511  1.00  0.00     0.189 HD
HETATM   15  C   UNK N   1     159.485 156.786 158.537  0.00  0.00     0.099 C 
HETATM   16  O   UNK N   1     161.680 156.447 157.435  0.00  0.00    -0.278 OA
ENDBRANCH   6   9
ENDBRANCH   1   3
BRANCH   1  17
HETATM   17  C   UNK N   1     168.331 154.455 154.593  0.00  0.00     0.162 C 
BRANCH  17  18
HETATM   18  C   UNK N   1     168.257 153.727 153.281  0.00  0.00     0.005 A 
HETATM   19  C   UNK N   1     167.763 154.210 152.082  0.00  0.00     0.120 A 
HETATM   20  N   UNK N   1     167.854 153.215 151.181  0.00  0.00    -0.307 N 
HETATM   21  C   UNK N   1     167.455 153.299 149.790  0.00  0.00     0.177 C 
HETATM   22  N   UNK N   1     168.364 152.129 151.740  0.00  0.00    -0.298 N 
HETATM   23  C   UNK N   1     168.628 152.413 153.030  0.00  0.00     0.069 A 
ATOM     24  HN  UNK N   1     168.529 151.236 151.276  1.00  0.00     0.187 HD
BRANCH  23  25
HETATM   25  C   UNK N   1     169.201 151.435 153.978  0.00  0.00     0.008 A 
HETATM   26  C   UNK N   1     170.572 151.151 153.990  0.00  0.00     0.016 A 
HETATM   27  C   UNK N   1     171.086 150.221 154.893  0.00  0.00     0.018 A 
HETATM   28  C   UNK N   1     170.222 149.591 155.790  0.00  0.00     0.087 A 
HETATM   29  N   UNK N   1     168.893 149.879 155.773  0.00  0.00    -0.374 N 
HETATM   30  C   UNK N   1     168.370 150.772 154.890  0.00  0.00     0.101 A 
ATOM     31  HN  UNK N   1     168.274 149.414 156.437  1.00  0.00     0.164 HD
ENDBRANCH  23  25
ENDBRANCH  17  18
ENDBRANCH   1  17
TORSDOF 5
ENDMDL
MODEL 5
REMARK VINA RESULT:      -5.7      5.855      8.913
REMARK  5 active torsions:
REMARK  status: ('A' for Active; 'I' for Inactive)
REMARK    1  A    between atoms: C_7  and  C_8 
REMARK    2  A    between atoms: C_11  and  N_12 
REMARK    3  A    between atoms: N_12  and  C_13 
REMARK    4  A    between atoms: C_13  and  C_14 
REMARK    5  A    between atoms: C_20  and  C_21 
ROOT
HETATM    1  N   UNK N   1     168.152 152.128 155.155  0.00  0.00    -0.386 N 
HETATM    2  H   UNK N   1     167.343 152.559 155.514  0.00  0.00     0.160 HD
ENDROOT
BRANCH   1   3
HETATM    3  C   UNK N   1     168.412 150.781 155.507  0.00  0.00     0.028 A 
HETATM    4  C   UNK N   1     167.471 149.772 155.256  0.00  0.00     0.030 A 
HETATM    5  C   UNK N   1     167.752 148.449 155.607  0.00  0.00     0.018 A 
HETATM    6  C   UNK N   1     168.971 148.126 156.212  0.00  0.00     0.017 A 
HETATM    7  C   UNK N   1     169.909 149.135 156.466  0.00  0.00     0.018 A 
HETATM    8  C   UNK N   1     169.629 150.458 156.114  0.00  0.00     0.030 A 
BRANCH   6   9
HETATM    9  C   UNK N   1     169.260 146.736 156.580  0.00  0.00     0.174 A 
HETATM   10  N   UNK N   1     169.960 145.869 155.821  0.00  0.00    -0.277 N 
HETATM   11  N   UNK N   1     170.004 144.729 156.493  0.00  0.00    -0.281 N 
ATOM     12  HN  UNK N   1     170.375 146.054 154.908  1.00  0.00     0.189 HD
HETATM   13  C   UNK N   1     169.329 144.934 157.640  0.00  0.00     0.136 A 
ATOM     14  HN  UNK N   1     170.459 143.865 156.200  1.00  0.00     0.189 HD
HETATM   15  C   UNK N   1     169.132 143.908 158.697  0.00  0.00     0.099 C 
HETATM   16  O   UNK N   1     168.874 146.160 157.694  0.00  0.00    -0.278 OA
ENDBRANCH   6   9
ENDBRANCH   1   3
BRANCH   1  17
HETATM   17  C   UNK N   1     169.018 152.902 154.294  0.00  0.00     0.162 C 
BRANCH  17  18
HETATM   18  C   UNK N   1     168.575 152.853 152.859  0.00  0.00     0.005 A 
HETATM   19  C   UNK N   1     167.889 153.831 152.161  0.00  0.00     0.120 A 
HETATM   20  N   UNK N   1     167.665 153.357 150.922  0.00  0.00    -0.307 N 
HETATM   21  C   UNK N   1     166.983 154.067 149.858  0.00  0.00     0.177 C 
HETATM   22  N   UNK N   1     168.157 152.134 150.798  0.00  0.00    -0.298 N 
HETATM   23  C   UNK N   1     168.728 151.798 151.971  0.00  0.00     0.069 A 
ATOM     24  HN  UNK N   1     168.112 151.551 149.962  1.00  0.00     0.187 HD
BRANCH  23  25
HETATM   25  C   UNK N   1     169.379 150.494 152.215  0.00  0.00     0.008 A 
HETATM   26  C   UNK N   1     168.685 149.290 152.040  0.00  0.00     0.016 A 
HETATM   27  C   UNK N   1     169.321 148.073 152.281  0.00  0.00     0.018 A 
HETATM   28  C   UNK N   1     170.658 148.070 152.682  0.00  0.00     0.087 A 
HETATM   29  N   UNK N   1     171.325 149.245 152.842  0.00  0.00    -0.374 N 
HETATM   30  C   UNK N   1     170.717 150.443 152.627  0.00  0.00     0.101 A 
ATOM     31  HN  UNK N   1     172.303 149.227 153.131  1.00  0.00     0.164 HD
ENDBRANCH  23  25
ENDBRANCH  17  18
ENDBRANCH   1  17
TORSDOF 5
ENDMDL
MODEL 6
REMARK VINA RESULT:      -5.7      2.937      4.670
REMARK  5 active torsions:
REMARK  status: ('A' for Active; 'I' for Inactive)
REMARK    1  A    between atoms: C_7  and  C_8 
REMARK    2  A    between atoms: C_11  and  N_12 
REMARK    3  A    between atoms: N_12  and  C_13 
REMARK    4  A    between atoms: C_13  and  C_14 
REMARK    5  A    between atoms: C_20  and  C_21 
ROOT
HETATM    1  N   UNK N   1     164.921 158.480 155.515  0.00  0.00    -0.386 N 
HETATM    2  H   UNK N   1     164.898 159.193 154.835  0.00  0.00     0.160 HD
ENDROOT
BRANCH   1   3
HETATM    3  C   UNK N   1     165.585 157.270 155.199  0.00  0.00     0.028 A 
HETATM    4  C   UNK N   1     166.243 156.524 156.189  0.00  0.00     0.030 A 
HETATM    5  C   UNK N   1     166.886 155.330 155.855  0.00  0.00     0.018 A 
HETATM    6  C   UNK N   1     166.880 154.874 154.533  0.00  0.00     0.017 A 
HETATM    7  C   UNK N   1     166.226 155.621 153.544  0.00  0.00     0.018 A 
HETATM    8  C   UNK N   1     165.581 156.814 153.878  0.00  0.00     0.030 A 
BRANCH   6   9
HETATM    9  C   UNK N   1     167.558 153.620 154.188  0.00  0.00     0.174 A 
HETATM   10  N   UNK N   1     168.005 153.300 152.957  0.00  0.00    -0.277 N 
HETATM   11  N   UNK N   1     168.552 152.099 153.054  0.00  0.00    -0.281 N 
ATOM     12  HN  UNK N   1     167.935 153.871 152.114  1.00  0.00     0.189 HD
HETATM   13  C   UNK N   1     168.424 151.722 154.340  0.00  0.00     0.136 A 
ATOM     14  HN  UNK N   1     168.988 151.564 152.303  1.00  0.00     0.189 HD
HETATM   15  C   UNK N   1     168.907 150.430 154.892  0.00  0.00     0.099 C 
HETATM   16  O   UNK N   1     167.815 152.651 155.034  0.00  0.00    -0.278 OA
ENDBRANCH   6   9
ENDBRANCH   1   3
BRANCH   1  17
HETATM   17  C   UNK N   1     164.275 158.720 156.785  0.00  0.00     0.162 C 
BRANCH  17  18
HETATM   18  C   UNK N   1     162.790 158.505 156.711  0.00  0.00     0.005 A 
HETATM   19  C   UNK N   1     161.805 159.475 156.658  0.00  0.00     0.120 A 
HETATM   20  N   UNK N   1     160.618 158.841 156.639  0.00  0.00    -0.307 N 
HETATM   21  C   UNK N   1     159.320 159.483 156.575  0.00  0.00     0.177 C 
HETATM   22  N   UNK N   1     160.793 157.530 156.689  0.00  0.00    -0.298 N 
HETATM   23  C   UNK N   1     162.118 157.291 156.728  0.00  0.00     0.069 A 
ATOM     24  HN  UNK N   1     160.055 156.826 156.695  1.00  0.00     0.187 HD
BRANCH  23  25
HETATM   25  C   UNK N   1     162.698 155.933 156.798  0.00  0.00     0.008 A 
HETATM   26  C   UNK N   1     162.839 155.142 155.651  0.00  0.00     0.016 A 
HETATM   27  C   UNK N   1     163.387 153.863 155.745  0.00  0.00     0.018 A 
HETATM   28  C   UNK N   1     163.804 153.390 156.990  0.00  0.00     0.087 A 
HETATM   29  N   UNK N   1     163.668 154.169 158.096  0.00  0.00    -0.374 N 
HETATM   30  C   UNK N   1     163.122 155.413 158.027  0.00  0.00     0.101 A 
ATOM     31  HN  UNK N   1     163.981 153.812 158.999  1.00  0.00     0.164 HD
ENDBRANCH  23  25
ENDBRANCH  17  18
ENDBRANCH   1  17
TORSDOF 5
ENDMDL
MODEL 7
REMARK VINA RESULT:      -5.7      3.168      6.870
REMARK  5 active torsions:
REMARK  status: ('A' for Active; 'I' for Inactive)
REMARK    1  A    between atoms: C_7  and  C_8 
REMARK    2  A    between atoms: C_11  and  N_12 
REMARK    3  A    between atoms: N_12  and  C_13 
REMARK    4  A    between atoms: C_13  and  C_14 
REMARK    5  A    between atoms: C_20  and  C_21 
ROOT
HETATM    1  N   UNK N   1     167.734 156.724 153.775  0.00  0.00    -0.386 N 
HETATM    2  H   UNK N   1     167.912 157.044 152.861  0.00  0.00     0.160 HD
ENDROOT
BRANCH   1   3
HETATM    3  C   UNK N   1     166.453 156.958 154.333  0.00  0.00     0.028 A 
HETATM    4  C   UNK N   1     166.308 157.615 155.564  0.00  0.00     0.030 A 
HETATM    5  C   UNK N   1     165.035 157.840 156.092  0.00  0.00     0.018 A 
HETATM    6  C   UNK N   1     163.899 157.410 155.397  0.00  0.00     0.017 A 
HETATM    7  C   UNK N   1     164.045 156.751 154.169  0.00  0.00     0.018 A 
HETATM    8  C   UNK N   1     165.318 156.528 153.640  0.00  0.00     0.030 A 
BRANCH   6   9
HETATM    9  C   UNK N   1     162.564 157.648 155.957  0.00  0.00     0.174 A 
HETATM   10  N   UNK N   1     161.777 158.698 155.649  0.00  0.00    -0.277 N 
HETATM   11  N   UNK N   1     160.665 158.555 156.353  0.00  0.00    -0.281 N 
ATOM     12  HN  UNK N   1     161.994 159.454 155.000  1.00  0.00     0.189 HD
HETATM   13  C   UNK N   1     160.807 157.423 157.069  0.00  0.00     0.136 A 
ATOM     14  HN  UNK N   1     159.858 159.178 156.353  1.00  0.00     0.189 HD
HETATM   15  C   UNK N   1     159.785 156.882 158.002  0.00  0.00     0.099 C 
HETATM   16  O   UNK N   1     161.968 156.868 156.828  0.00  0.00    -0.278 OA
ENDBRANCH   6   9
ENDBRANCH   1   3
BRANCH   1  17
HETATM   17  C   UNK N   1     168.792 156.041 154.483  0.00  0.00     0.162 C 
BRANCH  17  18
HETATM   18  C   UNK N   1     168.684 154.548 154.354  0.00  0.00     0.005 A 
HETATM   19  C   UNK N   1     169.313 153.740 153.424  0.00  0.00     0.120 A 
HETATM   20  N   UNK N   1     168.905 152.477 153.649  0.00  0.00    -0.307 N 
HETATM   21  C   UNK N   1     169.331 151.309 152.905  0.00  0.00     0.177 C 
HETATM   22  N   UNK N   1     168.047 152.441 154.656  0.00  0.00    -0.298 N 
HETATM   23  C   UNK N   1     167.894 153.697 155.115  0.00  0.00     0.069 A 
ATOM     24  HN  UNK N   1     167.584 151.608 155.020  1.00  0.00     0.187 HD
BRANCH  23  25
HETATM   25  C   UNK N   1     167.000 154.051 156.238  0.00  0.00     0.008 A 
HETATM   26  C   UNK N   1     165.611 153.897 156.138  0.00  0.00     0.016 A 
HETATM   27  C   UNK N   1     164.790 154.242 157.210  0.00  0.00     0.018 A 
HETATM   28  C   UNK N   1     165.368 154.726 158.384  0.00  0.00     0.087 A 
HETATM   29  N   UNK N   1     166.718 154.866 158.472  0.00  0.00    -0.374 N 
HETATM   30  C   UNK N   1     167.535 154.549 157.432  0.00  0.00     0.101 A 
ATOM     31  HN  UNK N   1     167.128 155.217 159.339  1.00  0.00     0.164 HD
ENDBRANCH  23  25
ENDBRANCH  17  18
ENDBRANCH   1  17
TORSDOF 5
ENDMDL
MODEL 8
REMARK VINA RESULT:      -5.6      4.048      8.478
REMARK  5 active torsions:
REMARK  status: ('A' for Active; 'I' for Inactive)
REMARK    1  A    between atoms: C_7  and  C_8 
REMARK    2  A    between atoms: C_11  and  N_12 
REMARK    3  A    between atoms: N_12  and  C_13 
REMARK    4  A    between atoms: C_13  and  C_14 
REMARK    5  A    between atoms: C_20  and  C_21 
ROOT
HETATM    1  N   UNK N   1     169.159 152.473 154.853  0.00  0.00    -0.386 N 
HETATM    2  H   UNK N   1     169.797 152.161 155.535  0.00  0.00     0.160 HD
ENDROOT
BRANCH   1   3
HETATM    3  C   UNK N   1     168.568 153.750 155.017  0.00  0.00     0.028 A 
HETATM    4  C   UNK N   1     167.368 153.907 155.727  0.00  0.00     0.030 A 
HETATM    5  C   UNK N   1     166.807 155.177 155.881  0.00  0.00     0.018 A 
HETATM    6  C   UNK N   1     167.437 156.296 155.327  0.00  0.00     0.017 A 
HETATM    7  C   UNK N   1     168.633 156.138 154.616  0.00  0.00     0.018 A 
HETATM    8  C   UNK N   1     169.196 154.869 154.463  0.00  0.00     0.030 A 
BRANCH   6   9
HETATM    9  C   UNK N   1     166.842 157.627 155.491  0.00  0.00     0.174 A 
HETATM   10  N   UNK N   1     165.984 158.199 154.623  0.00  0.00    -0.277 N 
HETATM   11  N   UNK N   1     165.678 159.386 155.121  0.00  0.00    -0.281 N 
ATOM     12  HN  UNK N   1     165.638 157.796 153.752  1.00  0.00     0.189 HD
HETATM   13  C   UNK N   1     166.359 159.504 156.278  0.00  0.00     0.136 A 
ATOM     14  HN  UNK N   1     165.050 160.077 154.712  1.00  0.00     0.189 HD
HETATM   15  C   UNK N   1     166.305 160.690 157.170  0.00  0.00     0.099 C 
HETATM   16  O   UNK N   1     167.071 158.429 156.504  0.00  0.00    -0.278 OA
ENDBRANCH   6   9
ENDBRANCH   1   3
BRANCH   1  17
HETATM   17  C   UNK N   1     168.870 151.606 153.734  0.00  0.00     0.162 C 
BRANCH  17  18
HETATM   18  C   UNK N   1     168.648 150.184 154.166  0.00  0.00     0.005 A 
HETATM   19  C   UNK N   1     168.337 149.734 155.437  0.00  0.00     0.120 A 
HETATM   20  N   UNK N   1     168.265 148.391 155.380  0.00  0.00    -0.307 N 
HETATM   21  C   UNK N   1     167.952 147.516 156.493  0.00  0.00     0.177 C 
HETATM   22  N   UNK N   1     168.523 147.965 154.154  0.00  0.00    -0.298 N 
HETATM   23  C   UNK N   1     168.757 149.044 153.382  0.00  0.00     0.069 A 
ATOM     24  HN  UNK N   1     168.541 146.993 153.848  1.00  0.00     0.187 HD
BRANCH  23  25
HETATM   25  C   UNK N   1     169.091 148.960 151.945  0.00  0.00     0.008 A 
HETATM   26  C   UNK N   1     168.090 148.853 150.971  0.00  0.00     0.016 A 
HETATM   27  C   UNK N   1     168.432 148.772 149.621  0.00  0.00     0.018 A 
HETATM   28  C   UNK N   1     169.779 148.812 149.256  0.00  0.00     0.087 A 
HETATM   29  N   UNK N   1     170.742 148.922 150.210  0.00  0.00    -0.374 N 
HETATM   30  C   UNK N   1     170.428 148.988 151.532  0.00  0.00     0.101 A 
ATOM     31  HN  UNK N   1     171.722 148.955 149.927  1.00  0.00     0.164 HD
ENDBRANCH  23  25
ENDBRANCH  17  18
ENDBRANCH   1  17
TORSDOF 5
ENDMDL
MODEL 9
REMARK VINA RESULT:      -5.5      4.399      8.478
REMARK  5 active torsions:
REMARK  status: ('A' for Active; 'I' for Inactive)
REMARK    1  A    between atoms: C_7  and  C_8 
REMARK    2  A    between atoms: C_11  and  N_12 
REMARK    3  A    between atoms: N_12  and  C_13 
REMARK    4  A    between atoms: C_13  and  C_14 
REMARK    5  A    between atoms: C_20  and  C_21 
ROOT
HETATM    1  N   UNK N   1     169.830 151.749 154.853  0.00  0.00    -0.386 N 
HETATM    2  H   UNK N   1     170.168 151.567 155.759  0.00  0.00     0.160 HD
ENDROOT
BRANCH   1   3
HETATM    3  C   UNK N   1     168.817 152.728 154.695  0.00  0.00     0.028 A 
HETATM    4  C   UNK N   1     168.862 153.654 153.643  0.00  0.00     0.030 A 
HETATM    5  C   UNK N   1     167.849 154.606 153.504  0.00  0.00     0.018 A 
HETATM    6  C   UNK N   1     166.788 154.641 154.415  0.00  0.00     0.017 A 
HETATM    7  C   UNK N   1     166.745 153.718 155.467  0.00  0.00     0.018 A 
HETATM    8  C   UNK N   1     167.757 152.765 155.605  0.00  0.00     0.030 A 
BRANCH   6   9
HETATM    9  C   UNK N   1     165.728 155.644 154.265  0.00  0.00     0.174 A 
HETATM   10  N   UNK N   1     165.423 156.276 153.114  0.00  0.00    -0.277 N 
HETATM   11  N   UNK N   1     164.419 157.094 153.387  0.00  0.00    -0.281 N 
ATOM     12  HN  UNK N   1     165.877 156.148 152.209  1.00  0.00     0.189 HD
HETATM   13  C   UNK N   1     164.142 156.938 154.695  0.00  0.00     0.136 A 
ATOM     14  HN  UNK N   1     163.947 157.720 152.734  1.00  0.00     0.189 HD
HETATM   15  C   UNK N   1     163.075 157.671 155.424  0.00  0.00     0.099 C 
HETATM   16  O   UNK N   1     164.941 156.052 155.233  0.00  0.00    -0.278 OA
ENDBRANCH   6   9
ENDBRANCH   1   3
BRANCH   1  17
HETATM   17  C   UNK N   1     170.388 151.005 153.747  0.00  0.00     0.162 C 
BRANCH  17  18
HETATM   18  C   UNK N   1     170.356 149.523 153.993  0.00  0.00     0.005 A 
HETATM   19  C   UNK N   1     170.681 148.860 155.163  0.00  0.00     0.120 A 
HETATM   20  N   UNK N   1     170.548 147.542 154.928  0.00  0.00    -0.307 N 
HETATM   21  C   UNK N   1     170.780 146.486 155.893  0.00  0.00     0.177 C 
HETATM   22  N   UNK N   1     170.171 147.331 153.677  0.00  0.00    -0.298 N 
HETATM   23  C   UNK N   1     170.039 148.530 153.077  0.00  0.00     0.069 A 
ATOM     24  HN  UNK N   1     170.009 146.422 153.245  1.00  0.00     0.187 HD
BRANCH  23  25
HETATM   25  C   UNK N   1     169.638 148.693 151.663  0.00  0.00     0.008 A 
HETATM   26  C   UNK N   1     170.549 149.130 150.694  0.00  0.00     0.016 A 
HETATM   27  C   UNK N   1     170.144 149.279 149.369  0.00  0.00     0.018 A 
HETATM   28  C   UNK N   1     168.828 148.974 149.019  0.00  0.00     0.087 A 
HETATM   29  N   UNK N   1     167.953 148.544 149.968  0.00  0.00    -0.374 N 
HETATM   30  C   UNK N   1     168.325 148.407 151.269  0.00  0.00     0.101 A 
ATOM     31  HN  UNK N   1     166.994 148.320 149.697  1.00  0.00     0.164 HD
ENDBRANCH  23  25
ENDBRANCH  17  18
ENDBRANCH   1  17
TORSDOF 5
ENDMDL
