MODEL 1
REMARK VINA RESULT:      -5.0      0.000      0.000
REMARK  9 active torsions:
REMARK  status: ('A' for Active; 'I' for Inactive)
REMARK    1  A    between atoms: C_2  and  C_3 
REMARK    2  A    between atoms: C_3  and  C_4 
REMARK    3  A    between atoms: C_4  and  C_5 
REMARK    4  A    between atoms: C_5  and  C_6 
REMARK       I    between atoms: C_6  and  N_8 
REMARK    5  A    between atoms: N_8  and  C_9 
REMARK    6  A    between atoms: N_8  and  C_21 
REMARK    7  A    between atoms: C_9  and  C_10 
REMARK    8  A    between atoms: C_10  and  N_11 
REMARK       I    between atoms: N_11  and  C_12 
REMARK    9  A    between atoms: C_14  and  C_12 
ROOT
HETATM    1  C   UNK N   1     168.262 153.697 153.347  0.00  0.00     0.146 C 
ENDROOT
BRANCH   1   2
HETATM    2  N   UNK N   1     167.893 154.880 154.115  0.00  0.00    -0.346 N 
HETATM    3  C   UNK N   1     168.032 156.131 153.575  0.00  0.00     0.220 C 
HETATM    4  O   UNK N   1     168.505 156.270 152.452  0.00  0.00    -0.273 OA
BRANCH   3   5
HETATM    5  C   UNK N   1     167.598 157.344 154.358  0.00  0.00     0.103 C 
BRANCH   5   6
HETATM    6  C   UNK N   1     166.364 158.042 153.807  0.00  0.00     0.009 C 
BRANCH   6   7
HETATM    7  C   UNK N   1     165.175 157.803 154.730  0.00  0.00     0.000 C 
BRANCH   7   8
HETATM    8  C   UNK N   1     163.991 157.196 153.987  0.00  0.00    -0.005 C 
HETATM    9  C   UNK N   1     164.447 156.492 152.721  0.00  0.00     0.005 C 
ENDBRANCH   7   8
ENDBRANCH   6   7
ENDBRANCH   5   6
ENDBRANCH   3   5
BRANCH   2  10
HETATM   10  C   UNK N   1     167.300 154.748 155.444  0.00  0.00     0.087 A 
HETATM   11  C   UNK N   1     165.844 154.301 155.422  0.00  0.00     0.027 A 
HETATM   12  C   UNK N   1     166.940 153.300 155.719  0.00  0.00     0.027 A 
ENDBRANCH   2  10
ENDBRANCH   1   2
BRANCH   1  13
HETATM   13  C   UNK N   1     169.731 153.319 153.526  0.00  0.00     0.142 C 
BRANCH  13  14
HETATM   14  N   UNK N   1     169.907 152.064 154.224  0.00  0.00    -0.359 N 
HETATM   15  C   UNK N   1     170.153 150.885 153.594  0.00  0.00     0.221 C 
HETATM   16  O   UNK N   1     170.151 150.822 152.371  0.00  0.00    -0.273 OA
HETATM   17  H   UNK N   1     169.846 152.063 155.207  0.00  0.00     0.162 HD
BRANCH  15  18
HETATM   18  C   UNK N   1     170.472 149.664 154.422  0.00  0.00     0.080 C 
HETATM   19  C   UNK N   1     169.523 148.503 154.072  0.00  0.00     0.016 C 
HETATM   20  C   UNK N   1     168.056 148.815 154.366  0.00  0.00     0.027 C 
HETATM   21  C   UNK N   1     167.757 148.622 155.847  0.00  0.00     0.167 C 
HETATM   22  O   UNK N   1     168.338 149.648 156.600  0.00  0.00    -0.391 OA
HETATM   23  C   UNK N   1     169.646 149.228 156.856  0.00  0.00     0.168 C 
HETATM   24  C   UNK N   1     170.621 149.960 155.932  0.00  0.00     0.040 C 
ENDBRANCH  15  18
ENDBRANCH  13  14
ENDBRANCH   1  13
TORSDOF 9
ENDMDL
MODEL 2
REMARK VINA RESULT:      -4.9      1.638      2.197
REMARK  9 active torsions:
REMARK  status: ('A' for Active; 'I' for Inactive)
REMARK    1  A    between atoms: C_2  and  C_3 
REMARK    2  A    between atoms: C_3  and  C_4 
REMARK    3  A    between atoms: C_4  and  C_5 
REMARK    4  A    between atoms: C_5  and  C_6 
REMARK       I    between atoms: C_6  and  N_8 
REMARK    5  A    between atoms: N_8  and  C_9 
REMARK    6  A    between atoms: N_8  and  C_21 
REMARK    7  A    between atoms: C_9  and  C_10 
REMARK    8  A    between atoms: C_10  and  N_11 
REMARK       I    between atoms: N_11  and  C_12 
REMARK    9  A    between atoms: C_14  and  C_12 
ROOT
HETATM    1  C   UNK N   1     169.319 155.617 154.742  0.00  0.00     0.146 C 
ENDROOT
BRANCH   1   2
HETATM    2  N   UNK N   1     168.083 156.319 155.065  0.00  0.00    -0.346 N 
HETATM    3  C   UNK N   1     167.564 157.246 154.200  0.00  0.00     0.220 C 
HETATM    4  O   UNK N   1     168.156 157.521 153.162  0.00  0.00    -0.273 OA
BRANCH   3   5
HETATM    5  C   UNK N   1     166.258 157.929 154.520  0.00  0.00     0.103 C 
BRANCH   5   6
HETATM    6  C   UNK N   1     165.155 157.687 153.501  0.00  0.00     0.009 C 
BRANCH   6   7
HETATM    7  C   UNK N   1     164.542 156.308 153.713  0.00  0.00     0.000 C 
BRANCH   7   8
HETATM    8  C   UNK N   1     163.647 156.267 154.946  0.00  0.00    -0.005 C 
HETATM    9  C   UNK N   1     163.077 154.876 155.158  0.00  0.00     0.005 C 
ENDBRANCH   7   8
ENDBRANCH   6   7
ENDBRANCH   5   6
ENDBRANCH   3   5
BRANCH   2  10
HETATM   10  C   UNK N   1     167.339 155.994 156.280  0.00  0.00     0.087 A 
HETATM   11  C   UNK N   1     166.665 154.629 156.236  0.00  0.00     0.027 A 
HETATM   12  C   UNK N   1     167.970 154.807 156.982  0.00  0.00     0.027 A 
ENDBRANCH   2  10
ENDBRANCH   1   2
BRANCH   1  13
HETATM   13  C   UNK N   1     169.127 154.568 153.649  0.00  0.00     0.142 C 
BRANCH  13  14
HETATM   14  N   UNK N   1     169.889 153.361 153.887  0.00  0.00    -0.359 N 
HETATM   15  C   UNK N   1     169.323 152.172 154.224  0.00  0.00     0.221 C 
HETATM   16  O   UNK N   1     168.118 152.094 154.428  0.00  0.00    -0.273 OA
HETATM   17  H   UNK N   1     170.869 153.402 153.800  0.00  0.00     0.162 HD
BRANCH  15  18
HETATM   18  C   UNK N   1     170.193 150.942 154.301  0.00  0.00     0.080 C 
HETATM   19  C   UNK N   1     170.674 150.524 152.899  0.00  0.00     0.016 C 
HETATM   20  C   UNK N   1     169.530 150.147 151.958  0.00  0.00     0.027 C 
HETATM   21  C   UNK N   1     169.063 148.722 152.230  0.00  0.00     0.167 C 
HETATM   22  O   UNK N   1     168.361 148.662 153.439  0.00  0.00    -0.391 OA
HETATM   23  C   UNK N   1     169.334 148.484 154.427  0.00  0.00     0.168 C 
HETATM   24  C   UNK N   1     169.587 149.805 155.155  0.00  0.00     0.040 C 
ENDBRANCH  15  18
ENDBRANCH  13  14
ENDBRANCH   1  13
TORSDOF 9
ENDMDL
MODEL 3
REMARK VINA RESULT:      -4.8      2.773      6.407
REMARK  9 active torsions:
REMARK  status: ('A' for Active; 'I' for Inactive)
REMARK    1  A    between atoms: C_2  and  C_3 
REMARK    2  A    between atoms: C_3  and  C_4 
REMARK    3  A    between atoms: C_4  and  C_5 
REMARK    4  A    between atoms: C_5  and  C_6 
REMARK       I    between atoms: C_6  and  N_8 
REMARK    5  A    between atoms: N_8  and  C_9 
REMARK    6  A    between atoms: N_8  and  C_21 
REMARK    7  A    between atoms: C_9  and  C_10 
REMARK    8  A    between atoms: C_10  and  N_11 
REMARK       I    between atoms: N_11  and  C_12 
REMARK    9  A    between atoms: C_14  and  C_12 
ROOT
HETATM    1  C   UNK N   1     168.738 154.690 155.319  0.00  0.00     0.146 C 
ENDROOT
BRANCH   1   2
HETATM    2  N   UNK N   1     168.331 153.928 154.146  0.00  0.00    -0.346 N 
HETATM    3  C   UNK N   1     168.147 154.552 152.940  0.00  0.00     0.220 C 
HETATM    4  O   UNK N   1     168.287 155.766 152.846  0.00  0.00    -0.273 OA
BRANCH   3   5
HETATM    5  C   UNK N   1     167.776 153.745 151.721  0.00  0.00     0.103 C 
BRANCH   5   6
HETATM    6  C   UNK N   1     166.999 154.518 150.666  0.00  0.00     0.009 C 
BRANCH   6   7
HETATM    7  C   UNK N   1     167.651 154.335 149.301  0.00  0.00     0.000 C 
BRANCH   7   8
HETATM    8  C   UNK N   1     166.734 154.781 148.169  0.00  0.00    -0.005 C 
HETATM    9  C   UNK N   1     165.654 153.748 147.904  0.00  0.00     0.005 C 
ENDBRANCH   7   8
ENDBRANCH   6   7
ENDBRANCH   5   6
ENDBRANCH   3   5
BRANCH   2  10
HETATM   10  C   UNK N   1     168.183 152.475 154.217  0.00  0.00     0.087 A 
HETATM   11  C   UNK N   1     169.480 151.716 153.967  0.00  0.00     0.027 A 
HETATM   12  C   UNK N   1     168.981 151.922 155.382  0.00  0.00     0.027 A 
ENDBRANCH   2  10
ENDBRANCH   1   2
BRANCH   1  13
HETATM   13  C   UNK N   1     167.714 154.616 156.449  0.00  0.00     0.142 C 
BRANCH  13  14
HETATM   14  N   UNK N   1     166.442 155.210 156.097  0.00  0.00    -0.359 N 
HETATM   15  C   UNK N   1     165.289 154.498 155.990  0.00  0.00     0.221 C 
HETATM   16  O   UNK N   1     165.297 153.280 156.108  0.00  0.00    -0.273 OA
HETATM   17  H   UNK N   1     166.410 156.178 155.925  0.00  0.00     0.162 HD
BRANCH  15  18
HETATM   18  C   UNK N   1     163.992 155.236 155.766  0.00  0.00     0.080 C 
HETATM   19  C   UNK N   1     163.682 155.355 154.262  0.00  0.00     0.016 C 
HETATM   20  C   UNK N   1     164.734 156.152 153.492  0.00  0.00     0.027 C 
HETATM   21  C   UNK N   1     164.502 157.647 153.664  0.00  0.00     0.167 C 
HETATM   22  O   UNK N   1     164.850 158.049 154.958  0.00  0.00    -0.391 OA
HETATM   23  C   UNK N   1     163.710 157.828 155.736  0.00  0.00     0.168 C 
HETATM   24  C   UNK N   1     163.882 156.554 156.566  0.00  0.00     0.040 C 
ENDBRANCH  15  18
ENDBRANCH  13  14
ENDBRANCH   1  13
TORSDOF 9
ENDMDL
MODEL 4
REMARK VINA RESULT:      -4.8      1.703      2.910
REMARK  9 active torsions:
REMARK  status: ('A' for Active; 'I' for Inactive)
REMARK    1  A    between atoms: C_2  and  C_3 
REMARK    2  A    between atoms: C_3  and  C_4 
REMARK    3  A    between atoms: C_4  and  C_5 
REMARK    4  A    between atoms: C_5  and  C_6 
REMARK       I    between atoms: C_6  and  N_8 
REMARK    5  A    between atoms: N_8  and  C_9 
REMARK    6  A    between atoms: N_8  and  C_21 
REMARK    7  A    between atoms: C_9  and  C_10 
REMARK    8  A    between atoms: C_10  and  N_11 
REMARK       I    between atoms: N_11  and  C_12 
REMARK    9  A    between atoms: C_14  and  C_12 
ROOT
HETATM    1  C   UNK N   1     168.454 154.508 154.405  0.00  0.00     0.146 C 
ENDROOT
BRANCH   1   2
HETATM    2  N   UNK N   1     167.056 154.829 154.664  0.00  0.00    -0.346 N 
HETATM    3  C   UNK N   1     166.269 153.974 155.388  0.00  0.00     0.220 C 
HETATM    4  O   UNK N   1     166.724 152.910 155.794  0.00  0.00    -0.273 OA
BRANCH   3   5
HETATM    5  C   UNK N   1     164.839 154.341 155.695  0.00  0.00     0.103 C 
BRANCH   5   6
HETATM    6  C   UNK N   1     164.249 153.625 156.900  0.00  0.00     0.009 C 
BRANCH   6   7
HETATM    7  C   UNK N   1     163.796 154.642 157.940  0.00  0.00     0.000 C 
BRANCH   7   8
HETATM    8  C   UNK N   1     164.420 156.012 157.707  0.00  0.00    -0.005 C 
HETATM    9  C   UNK N   1     163.364 157.103 157.735  0.00  0.00     0.005 C 
ENDBRANCH   7   8
ENDBRANCH   6   7
ENDBRANCH   5   6
ENDBRANCH   3   5
BRANCH   2  10
HETATM   10  C   UNK N   1     166.491 156.102 154.219  0.00  0.00     0.087 A 
HETATM   11  C   UNK N   1     166.913 157.290 155.074  0.00  0.00     0.027 A 
HETATM   12  C   UNK N   1     167.593 157.031 153.747  0.00  0.00     0.027 A 
ENDBRANCH   2  10
ENDBRANCH   1   2
BRANCH   1  13
HETATM   13  C   UNK N   1     168.618 153.418 153.348  0.00  0.00     0.142 C 
BRANCH  13  14
HETATM   14  N   UNK N   1     169.058 152.157 153.904  0.00  0.00    -0.359 N 
HETATM   15  C   UNK N   1     169.333 151.062 153.147  0.00  0.00     0.221 C 
HETATM   16  O   UNK N   1     169.133 151.074 151.940  0.00  0.00    -0.273 OA
HETATM   17  H   UNK N   1     169.164 152.087 154.880  0.00  0.00     0.162 HD
BRANCH  15  18
HETATM   18  C   UNK N   1     169.930 149.845 153.811  0.00  0.00     0.080 C 
HETATM   19  C   UNK N   1     168.955 148.655 153.749  0.00  0.00     0.016 C 
HETATM   20  C   UNK N   1     167.643 148.912 154.490  0.00  0.00     0.027 C 
HETATM   21  C   UNK N   1     167.825 148.694 155.987  0.00  0.00     0.167 C 
HETATM   22  O   UNK N   1     168.580 149.732 156.543  0.00  0.00    -0.391 OA
HETATM   23  C   UNK N   1     169.915 149.356 156.372  0.00  0.00     0.168 C 
HETATM   24  C   UNK N   1     170.532 150.131 155.205  0.00  0.00     0.040 C 
ENDBRANCH  15  18
ENDBRANCH  13  14
ENDBRANCH   1  13
TORSDOF 9
ENDMDL
MODEL 5
REMARK VINA RESULT:      -4.8      2.169      3.120
REMARK  9 active torsions:
REMARK  status: ('A' for Active; 'I' for Inactive)
REMARK    1  A    between atoms: C_2  and  C_3 
REMARK    2  A    between atoms: C_3  and  C_4 
REMARK    3  A    between atoms: C_4  and  C_5 
REMARK    4  A    between atoms: C_5  and  C_6 
REMARK       I    between atoms: C_6  and  N_8 
REMARK    5  A    between atoms: N_8  and  C_9 
REMARK    6  A    between atoms: N_8  and  C_21 
REMARK    7  A    between atoms: C_9  and  C_10 
REMARK    8  A    between atoms: C_10  and  N_11 
REMARK       I    between atoms: N_11  and  C_12 
REMARK    9  A    between atoms: C_14  and  C_12 
ROOT
HETATM    1  C   UNK N   1     168.706 155.738 155.970  0.00  0.00     0.146 C 
ENDROOT
BRANCH   1   2
HETATM    2  N   UNK N   1     167.497 156.488 155.654  0.00  0.00    -0.346 N 
HETATM    3  C   UNK N   1     166.695 156.107 154.611  0.00  0.00     0.220 C 
HETATM    4  O   UNK N   1     167.008 155.152 153.909  0.00  0.00    -0.273 OA
BRANCH   3   5
HETATM    5  C   UNK N   1     165.420 156.859 154.325  0.00  0.00     0.103 C 
BRANCH   5   6
HETATM    6  C   UNK N   1     164.156 156.019 154.426  0.00  0.00     0.009 C 
BRANCH   6   7
HETATM    7  C   UNK N   1     164.002 155.478 155.843  0.00  0.00     0.000 C 
BRANCH   7   8
HETATM    8  C   UNK N   1     163.508 154.037 155.851  0.00  0.00    -0.005 C 
HETATM    9  C   UNK N   1     162.238 153.892 155.032  0.00  0.00     0.005 C 
ENDBRANCH   7   8
ENDBRANCH   6   7
ENDBRANCH   5   6
ENDBRANCH   3   5
BRANCH   2  10
HETATM   10  C   UNK N   1     167.081 157.614 156.488  0.00  0.00     0.087 A 
HETATM   11  C   UNK N   1     166.580 157.201 157.866  0.00  0.00     0.027 A 
HETATM   12  C   UNK N   1     167.987 157.736 157.698  0.00  0.00     0.027 A 
ENDBRANCH   2  10
ENDBRANCH   1   2
BRANCH   1  13
HETATM   13  C   UNK N   1     168.403 154.381 156.602  0.00  0.00     0.142 C 
BRANCH  13  14
HETATM   14  N   UNK N   1     168.846 153.270 155.788  0.00  0.00    -0.359 N 
HETATM   15  C   UNK N   1     168.012 152.299 155.330  0.00  0.00     0.221 C 
HETATM   16  O   UNK N   1     166.836 152.281 155.666  0.00  0.00    -0.273 OA
HETATM   17  H   UNK N   1     169.801 153.213 155.555  0.00  0.00     0.162 HD
BRANCH  15  18
HETATM   18  C   UNK N   1     168.548 151.270 154.365  0.00  0.00     0.080 C 
HETATM   19  C   UNK N   1     168.207 149.845 154.840  0.00  0.00     0.016 C 
HETATM   20  C   UNK N   1     168.834 149.494 156.189  0.00  0.00     0.027 C 
HETATM   21  C   UNK N   1     170.293 149.093 156.010  0.00  0.00     0.167 C 
HETATM   22  O   UNK N   1     171.074 150.214 155.708  0.00  0.00    -0.391 OA
HETATM   23  C   UNK N   1     170.992 150.363 154.321  0.00  0.00     0.168 C 
HETATM   24  C   UNK N   1     170.026 151.497 153.972  0.00  0.00     0.040 C 
ENDBRANCH  15  18
ENDBRANCH  13  14
ENDBRANCH   1  13
TORSDOF 9
ENDMDL
MODEL 6
REMARK VINA RESULT:      -4.8      2.677      3.735
REMARK  9 active torsions:
REMARK  status: ('A' for Active; 'I' for Inactive)
REMARK    1  A    between atoms: C_2  and  C_3 
REMARK    2  A    between atoms: C_3  and  C_4 
REMARK    3  A    between atoms: C_4  and  C_5 
REMARK    4  A    between atoms: C_5  and  C_6 
REMARK       I    between atoms: C_6  and  N_8 
REMARK    5  A    between atoms: N_8  and  C_9 
REMARK    6  A    between atoms: N_8  and  C_21 
REMARK    7  A    between atoms: C_9  and  C_10 
REMARK    8  A    between atoms: C_10  and  N_11 
REMARK       I    between atoms: N_11  and  C_12 
REMARK    9  A    between atoms: C_14  and  C_12 
ROOT
HETATM    1  C   UNK N   1     167.876 155.549 154.243  0.00  0.00     0.146 C 
ENDROOT
BRANCH   1   2
HETATM    2  N   UNK N   1     167.412 156.205 155.459  0.00  0.00    -0.346 N 
HETATM    3  C   UNK N   1     168.167 156.167 156.601  0.00  0.00     0.220 C 
HETATM    4  O   UNK N   1     169.225 155.548 156.621  0.00  0.00    -0.273 OA
BRANCH   3   5
HETATM    5  C   UNK N   1     167.703 156.894 157.838  0.00  0.00     0.103 C 
BRANCH   5   6
HETATM    6  C   UNK N   1     168.823 157.356 158.756  0.00  0.00     0.009 C 
BRANCH   6   7
HETATM    7  C   UNK N   1     168.984 158.868 158.663  0.00  0.00     0.000 C 
BRANCH   7   8
HETATM    8  C   UNK N   1     167.638 159.580 158.602  0.00  0.00    -0.005 C 
HETATM    9  C   UNK N   1     167.778 160.954 157.970  0.00  0.00     0.005 C 
ENDBRANCH   7   8
ENDBRANCH   6   7
ENDBRANCH   5   6
ENDBRANCH   3   5
BRANCH   2  10
HETATM   10  C   UNK N   1     166.170 156.976 155.461  0.00  0.00     0.087 A 
HETATM   11  C   UNK N   1     166.334 158.400 154.944  0.00  0.00     0.027 A 
HETATM   12  C   UNK N   1     165.766 157.325 154.041  0.00  0.00     0.027 A 
ENDBRANCH   2  10
ENDBRANCH   1   2
BRANCH   1  13
HETATM   13  C   UNK N   1     167.452 154.084 154.170  0.00  0.00     0.142 C 
BRANCH  13  14
HETATM   14  N   UNK N   1     168.522 153.171 154.510  0.00  0.00    -0.359 N 
HETATM   15  C   UNK N   1     168.317 151.973 155.119  0.00  0.00     0.221 C 
HETATM   16  O   UNK N   1     167.197 151.649 155.492  0.00  0.00    -0.273 OA
HETATM   17  H   UNK N   1     169.445 153.430 154.288  0.00  0.00     0.162 HD
BRANCH  15  18
HETATM   18  C   UNK N   1     169.483 151.031 155.291  0.00  0.00     0.080 C 
HETATM   19  C   UNK N   1     170.121 150.696 153.931  0.00  0.00     0.016 C 
HETATM   20  C   UNK N   1     169.166 149.980 152.977  0.00  0.00     0.027 C 
HETATM   21  C   UNK N   1     169.089 148.496 153.314  0.00  0.00     0.167 C 
HETATM   22  O   UNK N   1     168.376 148.302 154.502  0.00  0.00    -0.391 OA
HETATM   23  C   UNK N   1     169.315 148.440 155.528  0.00  0.00     0.168 C 
HETATM   24  C   UNK N   1     169.169 149.812 156.189  0.00  0.00     0.040 C 
ENDBRANCH  15  18
ENDBRANCH  13  14
ENDBRANCH   1  13
TORSDOF 9
ENDMDL
MODEL 7
REMARK VINA RESULT:      -4.7      1.613      2.123
REMARK  9 active torsions:
REMARK  status: ('A' for Active; 'I' for Inactive)
REMARK    1  A    between atoms: C_2  and  C_3 
REMARK    2  A    between atoms: C_3  and  C_4 
REMARK    3  A    between atoms: C_4  and  C_5 
REMARK    4  A    between atoms: C_5  and  C_6 
REMARK       I    between atoms: C_6  and  N_8 
REMARK    5  A    between atoms: N_8  and  C_9 
REMARK    6  A    between atoms: N_8  and  C_21 
REMARK    7  A    between atoms: C_9  and  C_10 
REMARK    8  A    between atoms: C_10  and  N_11 
REMARK       I    between atoms: N_11  and  C_12 
REMARK    9  A    between atoms: C_14  and  C_12 
ROOT
HETATM    1  C   UNK N   1     168.834 154.480 153.511  0.00  0.00     0.146 C 
ENDROOT
BRANCH   1   2
HETATM    2  N   UNK N   1     167.839 155.481 153.875  0.00  0.00    -0.346 N 
HETATM    3  C   UNK N   1     166.829 155.804 153.008  0.00  0.00     0.220 C 
HETATM    4  O   UNK N   1     166.774 155.280 151.901  0.00  0.00    -0.273 OA
BRANCH   3   5
HETATM    5  C   UNK N   1     165.775 156.803 153.415  0.00  0.00     0.103 C 
BRANCH   5   6
HETATM    6  C   UNK N   1     164.368 156.234 153.501  0.00  0.00     0.009 C 
BRANCH   6   7
HETATM    7  C   UNK N   1     163.964 156.061 154.961  0.00  0.00     0.000 C 
BRANCH   7   8
HETATM    8  C   UNK N   1     163.133 154.803 155.176  0.00  0.00    -0.005 C 
HETATM    9  C   UNK N   1     163.705 153.959 156.302  0.00  0.00     0.005 C 
ENDBRANCH   7   8
ENDBRANCH   6   7
ENDBRANCH   5   6
ENDBRANCH   3   5
BRANCH   2  10
HETATM   10  C   UNK N   1     167.859 156.103 155.197  0.00  0.00     0.087 A 
HETATM   11  C   UNK N   1     167.373 155.186 156.311  0.00  0.00     0.027 A 
HETATM   12  C   UNK N   1     168.856 155.398 156.096  0.00  0.00     0.027 A 
ENDBRANCH   2  10
ENDBRANCH   1   2
BRANCH   1  13
HETATM   13  C   UNK N   1     168.255 153.067 153.473  0.00  0.00     0.142 C 
BRANCH  13  14
HETATM   14  N   UNK N   1     169.120 152.087 154.093  0.00  0.00    -0.359 N 
HETATM   15  C   UNK N   1     168.799 151.419 155.232  0.00  0.00     0.221 C 
HETATM   16  O   UNK N   1     167.773 151.689 155.842  0.00  0.00    -0.273 OA
HETATM   17  H   UNK N   1     169.987 151.894 153.667  0.00  0.00     0.162 HD
BRANCH  15  18
HETATM   18  C   UNK N   1     169.704 150.310 155.710  0.00  0.00     0.080 C 
HETATM   19  C   UNK N   1     169.405 148.998 154.960  0.00  0.00     0.016 C 
HETATM   20  C   UNK N   1     167.984 148.483 155.190  0.00  0.00     0.027 C 
HETATM   21  C   UNK N   1     167.892 147.750 156.522  0.00  0.00     0.167 C 
HETATM   22  O   UNK N   1     167.954 148.659 157.584  0.00  0.00    -0.391 OA
HETATM   23  C   UNK N   1     169.316 148.848 157.834  0.00  0.00     0.168 C 
HETATM   24  C   UNK N   1     169.774 150.186 157.249  0.00  0.00     0.040 C 
ENDBRANCH  15  18
ENDBRANCH  13  14
ENDBRANCH   1  13
TORSDOF 9
ENDMDL
MODEL 8
REMARK VINA RESULT:      -4.7      2.071      3.303
REMARK  9 active torsions:
REMARK  status: ('A' for Active; 'I' for Inactive)
REMARK    1  A    between atoms: C_2  and  C_3 
REMARK    2  A    between atoms: C_3  and  C_4 
REMARK    3  A    between atoms: C_4  and  C_5 
REMARK    4  A    between atoms: C_5  and  C_6 
REMARK       I    between atoms: C_6  and  N_8 
REMARK    5  A    between atoms: N_8  and  C_9 
REMARK    6  A    between atoms: N_8  and  C_21 
REMARK    7  A    between atoms: C_9  and  C_10 
REMARK    8  A    between atoms: C_10  and  N_11 
REMARK       I    between atoms: N_11  and  C_12 
REMARK    9  A    between atoms: C_14  and  C_12 
ROOT
HETATM    1  C   UNK N   1     167.678 154.700 155.159  0.00  0.00     0.146 C 
ENDROOT
BRANCH   1   2
HETATM    2  N   UNK N   1     166.296 155.112 154.950  0.00  0.00    -0.346 N 
HETATM    3  C   UNK N   1     165.269 154.429 155.546  0.00  0.00     0.220 C 
HETATM    4  O   UNK N   1     165.502 153.439 156.232  0.00  0.00    -0.273 OA
BRANCH   3   5
HETATM    5  C   UNK N   1     163.846 154.895 155.365  0.00  0.00     0.103 C 
BRANCH   5   6
HETATM    6  C   UNK N   1     163.078 155.093 156.663  0.00  0.00     0.009 C 
BRANCH   6   7
HETATM    7  C   UNK N   1     162.130 156.279 156.532  0.00  0.00     0.000 C 
BRANCH   7   8
HETATM    8  C   UNK N   1     162.772 157.440 155.783  0.00  0.00    -0.005 C 
HETATM    9  C   UNK N   1     163.228 158.522 156.745  0.00  0.00     0.005 C 
ENDBRANCH   7   8
ENDBRANCH   6   7
ENDBRANCH   5   6
ENDBRANCH   3   5
BRANCH   2  10
HETATM   10  C   UNK N   1     165.986 156.304 154.162  0.00  0.00     0.087 A 
HETATM   11  C   UNK N   1     166.353 157.608 154.857  0.00  0.00     0.027 A 
HETATM   12  C   UNK N   1     167.262 157.035 153.791  0.00  0.00     0.027 A 
ENDBRANCH   2  10
ENDBRANCH   1   2
BRANCH   1  13
HETATM   13  C   UNK N   1     168.071 153.508 154.290  0.00  0.00     0.142 C 
BRANCH  13  14
HETATM   14  N   UNK N   1     169.011 152.621 154.941  0.00  0.00    -0.359 N 
HETATM   15  C   UNK N   1     168.684 151.379 155.384  0.00  0.00     0.221 C 
HETATM   16  O   UNK N   1     167.527 150.982 155.324  0.00  0.00    -0.273 OA
HETATM   17  H   UNK N   1     169.936 152.934 155.070  0.00  0.00     0.162 HD
BRANCH  15  18
HETATM   18  C   UNK N   1     169.774 150.479 155.911  0.00  0.00     0.080 C 
HETATM   19  C   UNK N   1     170.953 150.411 154.923  0.00  0.00     0.016 C 
HETATM   20  C   UNK N   1     170.569 149.822 153.567  0.00  0.00     0.027 C 
HETATM   21  C   UNK N   1     170.533 148.301 153.637  0.00  0.00     0.167 C 
HETATM   22  O   UNK N   1     169.419 147.873 154.368  0.00  0.00    -0.391 OA
HETATM   23  C   UNK N   1     169.825 147.880 155.706  0.00  0.00     0.168 C 
HETATM   24  C   UNK N   1     169.260 149.111 156.417  0.00  0.00     0.040 C 
ENDBRANCH  15  18
ENDBRANCH  13  14
ENDBRANCH   1  13
TORSDOF 9
ENDMDL
MODEL 9
REMARK VINA RESULT:      -4.7      2.771      4.864
REMARK  9 active torsions:
REMARK  status: ('A' for Active; 'I' for Inactive)
REMARK    1  A    between atoms: C_2  and  C_3 
REMARK    2  A    between atoms: C_3  and  C_4 
REMARK    3  A    between atoms: C_4  and  C_5 
REMARK    4  A    between atoms: C_5  and  C_6 
REMARK       I    between atoms: C_6  and  N_8 
REMARK    5  A    between atoms: N_8  and  C_9 
REMARK    6  A    between atoms: N_8  and  C_21 
REMARK    7  A    between atoms: C_9  and  C_10 
REMARK    8  A    between atoms: C_10  and  N_11 
REMARK       I    between atoms: N_11  and  C_12 
REMARK    9  A    between atoms: C_14  and  C_12 
ROOT
HETATM    1  C   UNK N   1     164.357 156.933 153.690  0.00  0.00     0.146 C 
ENDROOT
BRANCH   1   2
HETATM    2  N   UNK N   1     164.921 157.401 154.950  0.00  0.00    -0.346 N 
HETATM    3  C   UNK N   1     165.787 158.462 154.973  0.00  0.00     0.220 C 
HETATM    4  O   UNK N   1     166.125 159.005 153.927  0.00  0.00    -0.273 OA
BRANCH   3   5
HETATM    5  C   UNK N   1     166.323 158.971 156.288  0.00  0.00     0.103 C 
BRANCH   5   6
HETATM    6  C   UNK N   1     165.852 160.367 156.663  0.00  0.00     0.009 C 
BRANCH   6   7
HETATM    7  C   UNK N   1     167.045 161.236 157.039  0.00  0.00     0.000 C 
BRANCH   7   8
HETATM    8  C   UNK N   1     167.585 160.894 158.422  0.00  0.00    -0.005 C 
HETATM    9  C   UNK N   1     166.472 160.891 159.455  0.00  0.00     0.005 C 
ENDBRANCH   7   8
ENDBRANCH   6   7
ENDBRANCH   5   6
ENDBRANCH   3   5
BRANCH   2  10
HETATM   10  C   UNK N   1     164.516 156.794 156.217  0.00  0.00     0.087 A 
HETATM   11  C   UNK N   1     163.125 157.212 156.678  0.00  0.00     0.027 A 
HETATM   12  C   UNK N   1     163.331 155.872 156.004  0.00  0.00     0.027 A 
ENDBRANCH   2  10
ENDBRANCH   1   2
BRANCH   1  13
HETATM   13  C   UNK N   1     165.354 156.119 152.870  0.00  0.00     0.142 C 
BRANCH  13  14
HETATM   14  N   UNK N   1     166.417 155.554 153.673  0.00  0.00    -0.359 N 
HETATM   15  C   UNK N   1     167.730 155.621 153.330  0.00  0.00     0.221 C 
HETATM   16  O   UNK N   1     168.069 156.102 152.257  0.00  0.00    -0.273 OA
HETATM   17  H   UNK N   1     166.176 155.097 154.511  0.00  0.00     0.162 HD
BRANCH  15  18
HETATM   18  C   UNK N   1     168.768 155.134 154.312  0.00  0.00     0.080 C 
HETATM   19  C   UNK N   1     169.455 153.857 153.793  0.00  0.00     0.016 C 
HETATM   20  C   UNK N   1     168.491 152.685 153.615  0.00  0.00     0.027 C 
HETATM   21  C   UNK N   1     168.225 152.006 154.952  0.00  0.00     0.167 C 
HETATM   22  O   UNK N   1     167.416 152.815 155.757  0.00  0.00    -0.391 OA
HETATM   23  C   UNK N   1     168.293 153.677 156.421  0.00  0.00     0.168 C 
HETATM   24  C   UNK N   1     168.259 155.061 155.769  0.00  0.00     0.040 C 
ENDBRANCH  15  18
ENDBRANCH  13  14
ENDBRANCH   1  13
TORSDOF 9
ENDMDL
