MODEL 1
REMARK VINA RESULT:      -6.2      0.000      0.000
REMARK  3 active torsions:
REMARK  status: ('A' for Active; 'I' for Inactive)
REMARK    1  A    between atoms: C_3  and  C_2 
REMARK       I    between atoms: N_11  and  C_12 
REMARK    2  A    between atoms: C_12  and  C_14 
REMARK    3  A    between atoms: C_16  and  C_17 
ROOT
HETATM    1  C   UNK N   1     165.654 155.440 154.447  0.00  0.00     0.137 C 
HETATM    2  C   UNK N   1     165.045 154.972 155.724  0.00  0.00     0.034 A 
HETATM    3  C   UNK N   1     164.285 153.853 155.977  0.00  0.00     0.028 A 
HETATM    4  C   UNK N   1     164.032 153.880 157.350  0.00  0.00     0.019 A 
HETATM    5  C   UNK N   1     164.673 155.004 157.859  0.00  0.00     0.091 A 
HETATM    6  N   UNK N   1     165.274 155.646 156.849  0.00  0.00    -0.357 N 
HETATM    7  C   UNK N   1     166.120 156.830 156.882  0.00  0.00     0.148 C 
HETATM    8  C   UNK N   1     167.341 156.598 155.961  0.00  0.00     0.147 C 
HETATM    9  N   UNK N   1     167.040 155.804 154.753  0.00  0.00    -0.335 N 
HETATM   10  C   UNK N   1     168.085 155.401 153.957  0.00  0.00     0.272 C 
HETATM   11  O   UNK N   1     169.226 155.721 154.268  0.00  0.00    -0.266 OA
ENDROOT
BRANCH  10  12
HETATM   12  C   UNK N   1     167.920 154.591 152.716  0.00  0.00     0.118 A 
HETATM   13  C   UNK N   1     167.585 155.020 151.441  0.00  0.00     0.064 A 
HETATM   14  C   UNK N   1     167.565 153.853 150.692  0.00  0.00     0.035 A 
HETATM   15  N   UNK N   1     167.871 152.806 151.480  0.00  0.00    -0.303 N 
HETATM   16  N   UNK N   1     168.087 153.253 152.704  0.00  0.00    -0.295 N 
ATOM     17  HN  UNK N   1     167.926 151.832 151.183  1.00  0.00     0.186 HD
HETATM   18  H   UNK N   1     168.330 152.700 153.482  0.00  0.00     0.187 HD
BRANCH  14  19
HETATM   19  C   UNK N   1     167.244 153.718 149.226  0.00  0.00    -0.007 C 
HETATM   20  C   UNK N   1     167.935 152.487 148.670  0.00  0.00     0.021 C 
HETATM   21  C   UNK N   1     165.750 153.583 148.982  0.00  0.00     0.021 C 
HETATM   22  C   UNK N   1     167.745 154.940 148.477  0.00  0.00     0.021 C 
ENDBRANCH  14  19
ENDBRANCH  10  12
BRANCH   1  23
HETATM   23  C   UNK N   1     164.882 156.679 153.993  0.00  0.00     0.027 C 
HETATM   24  C   UNK N   1     164.344 156.518 152.585  0.00  0.00     0.007 C 
ENDBRANCH   1  23
TORSDOF 3
ENDMDL
MODEL 2
REMARK VINA RESULT:      -5.7      3.535      6.934
REMARK  3 active torsions:
REMARK  status: ('A' for Active; 'I' for Inactive)
REMARK    1  A    between atoms: C_3  and  C_2 
REMARK       I    between atoms: N_11  and  C_12 
REMARK    2  A    between atoms: C_12  and  C_14 
REMARK    3  A    between atoms: C_16  and  C_17 
ROOT
HETATM    1  C   UNK N   1     165.541 155.810 155.453  0.00  0.00     0.137 C 
HETATM    2  C   UNK N   1     166.801 156.334 156.053  0.00  0.00     0.034 A 
HETATM    3  C   UNK N   1     167.016 157.483 156.780  0.00  0.00     0.028 A 
HETATM    4  C   UNK N   1     168.364 157.446 157.140  0.00  0.00     0.019 A 
HETATM    5  C   UNK N   1     168.889 156.263 156.630  0.00  0.00     0.091 A 
HETATM    6  N   UNK N   1     167.918 155.615 155.973  0.00  0.00    -0.357 N 
HETATM    7  C   UNK N   1     167.953 154.312 155.327  0.00  0.00     0.148 C 
HETATM    8  C   UNK N   1     166.664 153.538 155.690  0.00  0.00     0.147 C 
HETATM    9  N   UNK N   1     165.465 154.392 155.813  0.00  0.00    -0.335 N 
HETATM   10  C   UNK N   1     164.308 153.830 156.294  0.00  0.00     0.272 C 
HETATM   11  O   UNK N   1     164.305 152.642 156.593  0.00  0.00    -0.266 OA
ENDROOT
BRANCH  10  12
HETATM   12  C   UNK N   1     163.032 154.581 156.473  0.00  0.00     0.118 A 
HETATM   13  C   UNK N   1     162.763 155.638 157.327  0.00  0.00     0.064 A 
HETATM   14  C   UNK N   1     161.430 155.933 157.081  0.00  0.00     0.035 A 
HETATM   15  N   UNK N   1     160.950 155.099 156.141  0.00  0.00    -0.303 N 
HETATM   16  N   UNK N   1     161.919 154.282 155.771  0.00  0.00    -0.295 N 
ATOM     17  HN  UNK N   1     159.998 155.099 155.775  1.00  0.00     0.186 HD
HETATM   18  H   UNK N   1     161.843 153.571 155.095  0.00  0.00     0.187 HD
BRANCH  14  19
HETATM   19  C   UNK N   1     160.597 156.999 157.746  0.00  0.00    -0.007 C 
HETATM   20  C   UNK N   1     160.827 158.326 157.047  0.00  0.00     0.021 C 
HETATM   21  C   UNK N   1     159.113 156.677 157.689  0.00  0.00     0.021 C 
HETATM   22  C   UNK N   1     161.004 157.135 159.201  0.00  0.00     0.021 C 
ENDBRANCH  14  19
ENDBRANCH  10  12
BRANCH   1  23
HETATM   23  C   UNK N   1     165.658 155.953 153.935  0.00  0.00     0.027 C 
HETATM   24  C   UNK N   1     164.345 156.385 153.312  0.00  0.00     0.007 C 
ENDBRANCH   1  23
TORSDOF 3
ENDMDL
MODEL 3
REMARK VINA RESULT:      -5.6     12.733     14.504
REMARK  3 active torsions:
REMARK  status: ('A' for Active; 'I' for Inactive)
REMARK    1  A    between atoms: C_3  and  C_2 
REMARK       I    between atoms: N_11  and  C_12 
REMARK    2  A    between atoms: C_12  and  C_14 
REMARK    3  A    between atoms: C_16  and  C_17 
ROOT
HETATM    1  C   UNK N   1     156.768 147.080 159.189  0.00  0.00     0.137 C 
HETATM    2  C   UNK N   1     156.222 148.024 158.173  0.00  0.00     0.034 A 
HETATM    3  C   UNK N   1     156.324 149.395 158.104  0.00  0.00     0.028 A 
HETATM    4  C   UNK N   1     155.680 149.755 156.919  0.00  0.00     0.019 A 
HETATM    5  C   UNK N   1     155.241 148.577 156.322  0.00  0.00     0.091 A 
HETATM    6  N   UNK N   1     155.582 147.548 157.108  0.00  0.00    -0.357 N 
HETATM    7  C   UNK N   1     155.405 146.121 156.887  0.00  0.00     0.148 C 
HETATM    8  C   UNK N   1     156.706 145.386 157.290  0.00  0.00     0.147 C 
HETATM    9  N   UNK N   1     157.401 145.986 158.447  0.00  0.00    -0.335 N 
HETATM   10  C   UNK N   1     158.647 145.514 158.779  0.00  0.00     0.272 C 
HETATM   11  O   UNK N   1     159.134 144.607 158.115  0.00  0.00    -0.266 OA
ENDROOT
BRANCH  10  12
HETATM   12  C   UNK N   1     159.457 146.035 159.918  0.00  0.00     0.118 A 
HETATM   13  C   UNK N   1     159.515 145.570 161.222  0.00  0.00     0.064 A 
HETATM   14  C   UNK N   1     160.414 146.427 161.840  0.00  0.00     0.035 A 
HETATM   15  N   UNK N   1     160.853 147.337 160.951  0.00  0.00    -0.303 N 
HETATM   16  N   UNK N   1     160.276 147.099 159.788  0.00  0.00    -0.295 N 
ATOM     17  HN  UNK N   1     161.521 148.084 161.144  1.00  0.00     0.186 HD
HETATM   18  H   UNK N   1     160.420 147.613 158.960  0.00  0.00     0.187 HD
BRANCH  14  19
HETATM   19  C   UNK N   1     160.853 146.399 163.282  0.00  0.00    -0.007 C 
HETATM   20  C   UNK N   1     162.368 146.361 163.345  0.00  0.00     0.021 C 
HETATM   21  C   UNK N   1     160.370 147.621 164.046  0.00  0.00     0.021 C 
HETATM   22  C   UNK N   1     160.303 145.159 163.961  0.00  0.00     0.021 C 
ENDBRANCH  14  19
ENDBRANCH  10  12
BRANCH   1  23
HETATM   23  C   UNK N   1     155.589 146.541 160.000  0.00  0.00     0.027 C 
HETATM   24  C   UNK N   1     156.028 146.049 161.365  0.00  0.00     0.007 C 
ENDBRANCH   1  23
TORSDOF 3
ENDMDL
MODEL 4
REMARK VINA RESULT:      -5.5      2.965      4.137
REMARK  3 active torsions:
REMARK  status: ('A' for Active; 'I' for Inactive)
REMARK    1  A    between atoms: C_3  and  C_2 
REMARK       I    between atoms: N_11  and  C_12 
REMARK    2  A    between atoms: C_12  and  C_14 
REMARK    3  A    between atoms: C_16  and  C_17 
ROOT
HETATM    1  C   UNK N   1     167.402 155.674 154.275  0.00  0.00     0.137 C 
HETATM    2  C   UNK N   1     166.082 156.194 153.817  0.00  0.00     0.034 A 
HETATM    3  C   UNK N   1     165.433 156.009 152.617  0.00  0.00     0.028 A 
HETATM    4  C   UNK N   1     164.211 156.670 152.752  0.00  0.00     0.019 A 
HETATM    5  C   UNK N   1     164.176 157.202 154.036  0.00  0.00     0.091 A 
HETATM    6  N   UNK N   1     165.326 156.900 154.654  0.00  0.00    -0.357 N 
HETATM    7  C   UNK N   1     165.736 157.174 156.023  0.00  0.00     0.148 C 
HETATM    8  C   UNK N   1     166.408 155.909 156.607  0.00  0.00     0.147 C 
HETATM    9  N   UNK N   1     167.195 155.138 155.623  0.00  0.00    -0.335 N 
HETATM   10  C   UNK N   1     167.692 153.913 155.997  0.00  0.00     0.272 C 
HETATM   11  O   UNK N   1     167.477 153.507 157.133  0.00  0.00    -0.266 OA
ENDROOT
BRANCH  10  12
HETATM   12  C   UNK N   1     168.495 153.033 155.100  0.00  0.00     0.118 A 
HETATM   13  C   UNK N   1     168.252 151.718 154.735  0.00  0.00     0.064 A 
HETATM   14  C   UNK N   1     169.315 151.403 153.901  0.00  0.00     0.035 A 
HETATM   15  N   UNK N   1     170.127 152.469 153.785  0.00  0.00    -0.303 N 
HETATM   16  N   UNK N   1     169.630 153.456 154.509  0.00  0.00    -0.295 N 
ATOM     17  HN  UNK N   1     170.983 152.509 153.230  1.00  0.00     0.186 HD
HETATM   18  H   UNK N   1     170.024 154.353 154.602  0.00  0.00     0.187 HD
BRANCH  14  19
HETATM   19  C   UNK N   1     169.575 150.085 153.217  0.00  0.00    -0.007 C 
HETATM   20  C   UNK N   1     168.540 149.072 153.667  0.00  0.00     0.021 C 
HETATM   21  C   UNK N   1     169.503 150.207 151.704  0.00  0.00     0.021 C 
HETATM   22  C   UNK N   1     170.954 149.576 153.594  0.00  0.00     0.021 C 
ENDBRANCH  14  19
ENDBRANCH  10  12
BRANCH   1  23
HETATM   23  C   UNK N   1     168.370 156.856 154.331  0.00  0.00     0.027 C 
HETATM   24  C   UNK N   1     168.729 157.350 152.944  0.00  0.00     0.007 C 
ENDBRANCH   1  23
TORSDOF 3
ENDMDL
MODEL 5
REMARK VINA RESULT:      -5.5      2.407      3.250
REMARK  3 active torsions:
REMARK  status: ('A' for Active; 'I' for Inactive)
REMARK    1  A    between atoms: C_3  and  C_2 
REMARK       I    between atoms: N_11  and  C_12 
REMARK    2  A    between atoms: C_12  and  C_14 
REMARK    3  A    between atoms: C_16  and  C_17 
ROOT
HETATM    1  C   UNK N   1     166.285 155.559 154.712  0.00  0.00     0.137 C 
HETATM    2  C   UNK N   1     166.031 155.950 156.127  0.00  0.00     0.034 A 
HETATM    3  C   UNK N   1     165.830 155.159 157.235  0.00  0.00     0.028 A 
HETATM    4  C   UNK N   1     165.700 156.046 158.305  0.00  0.00     0.019 A 
HETATM    5  C   UNK N   1     165.853 157.329 157.790  0.00  0.00     0.091 A 
HETATM    6  N   UNK N   1     166.048 157.237 156.468  0.00  0.00    -0.357 N 
HETATM    7  C   UNK N   1     166.322 158.289 155.501  0.00  0.00     0.148 C 
HETATM    8  C   UNK N   1     167.450 157.816 154.553  0.00  0.00     0.147 C 
HETATM    9  N   UNK N   1     167.412 156.372 154.248  0.00  0.00    -0.335 N 
HETATM   10  C   UNK N   1     168.462 155.821 153.554  0.00  0.00     0.272 C 
HETATM   11  O   UNK N   1     169.386 156.545 153.203  0.00  0.00    -0.266 OA
ENDROOT
BRANCH  10  12
HETATM   12  C   UNK N   1     168.550 154.378 153.188  0.00  0.00     0.118 A 
HETATM   13  C   UNK N   1     169.115 153.336 153.906  0.00  0.00     0.064 A 
HETATM   14  C   UNK N   1     168.922 152.229 153.093  0.00  0.00     0.035 A 
HETATM   15  N   UNK N   1     168.283 152.601 151.970  0.00  0.00    -0.303 N 
HETATM   16  N   UNK N   1     168.056 153.901 152.027  0.00  0.00    -0.295 N 
ATOM     17  HN  UNK N   1     168.017 151.983 151.203  1.00  0.00     0.186 HD
HETATM   18  H   UNK N   1     167.601 154.435 151.337  0.00  0.00     0.187 HD
BRANCH  14  19
HETATM   19  C   UNK N   1     169.353 150.812 153.370  0.00  0.00    -0.007 C 
HETATM   20  C   UNK N   1     169.258 149.999 152.093  0.00  0.00     0.021 C 
HETATM   21  C   UNK N   1     170.784 150.743 153.878  0.00  0.00     0.021 C 
HETATM   22  C   UNK N   1     168.442 150.193 154.413  0.00  0.00     0.021 C 
ENDBRANCH  14  19
ENDBRANCH  10  12
BRANCH   1  23
HETATM   23  C   UNK N   1     165.032 155.904 153.905  0.00  0.00     0.027 C 
HETATM   24  C   UNK N   1     163.770 155.450 154.612  0.00  0.00     0.007 C 
ENDBRANCH   1  23
TORSDOF 3
ENDMDL
MODEL 6
REMARK VINA RESULT:      -5.5     12.438     14.365
REMARK  3 active torsions:
REMARK  status: ('A' for Active; 'I' for Inactive)
REMARK    1  A    between atoms: C_3  and  C_2 
REMARK       I    between atoms: N_11  and  C_12 
REMARK    2  A    between atoms: C_12  and  C_14 
REMARK    3  A    between atoms: C_16  and  C_17 
ROOT
HETATM    1  C   UNK N   1     158.927 145.790 160.786  0.00  0.00     0.137 C 
HETATM    2  C   UNK N   1     159.962 146.136 161.801  0.00  0.00     0.034 A 
HETATM    3  C   UNK N   1     160.953 147.090 161.756  0.00  0.00     0.028 A 
HETATM    4  C   UNK N   1     161.592 147.020 162.995  0.00  0.00     0.019 A 
HETATM    5  C   UNK N   1     160.937 146.040 163.734  0.00  0.00     0.091 A 
HETATM    6  N   UNK N   1     159.957 145.522 162.982  0.00  0.00    -0.357 N 
HETATM    7  C   UNK N   1     158.959 144.522 163.329  0.00  0.00     0.148 C 
HETATM    8  C   UNK N   1     157.583 144.980 162.791  0.00  0.00     0.147 C 
HETATM    9  N   UNK N   1     157.652 145.699 161.502  0.00  0.00    -0.335 N 
HETATM   10  C   UNK N   1     156.510 146.292 161.022  0.00  0.00     0.272 C 
HETATM   11  O   UNK N   1     155.474 146.197 161.669  0.00  0.00    -0.266 OA
ENDROOT
BRANCH  10  12
HETATM   12  C   UNK N   1     156.445 147.052 159.740  0.00  0.00     0.118 A 
HETATM   13  C   UNK N   1     156.085 146.596 158.481  0.00  0.00     0.064 A 
HETATM   14  C   UNK N   1     156.210 147.716 157.674  0.00  0.00     0.035 A 
HETATM   15  N   UNK N   1     156.617 148.763 158.415  0.00  0.00    -0.303 N 
HETATM   16  N   UNK N   1     156.757 148.361 159.665  0.00  0.00    -0.295 N 
ATOM     17  HN  UNK N   1     156.788 149.707 158.069  1.00  0.00     0.186 HD
HETATM   18  H   UNK N   1     157.043 148.926 160.419  0.00  0.00     0.187 HD
BRANCH  14  19
HETATM   19  C   UNK N   1     155.958 147.801 156.190  0.00  0.00    -0.007 C 
HETATM   20  C   UNK N   1     154.648 148.525 155.943  0.00  0.00     0.021 C 
HETATM   21  C   UNK N   1     157.065 148.550 155.468  0.00  0.00     0.021 C 
HETATM   22  C   UNK N   1     155.862 146.404 155.606  0.00  0.00     0.021 C 
ENDBRANCH  14  19
ENDBRANCH  10  12
BRANCH   1  23
HETATM   23  C   UNK N   1     159.291 144.424 160.202  0.00  0.00     0.027 C 
HETATM   24  C   UNK N   1     159.324 144.455 158.687  0.00  0.00     0.007 C 
ENDBRANCH   1  23
TORSDOF 3
ENDMDL
MODEL 7
REMARK VINA RESULT:      -5.4      2.844      3.655
REMARK  3 active torsions:
REMARK  status: ('A' for Active; 'I' for Inactive)
REMARK    1  A    between atoms: C_3  and  C_2 
REMARK       I    between atoms: N_11  and  C_12 
REMARK    2  A    between atoms: C_12  and  C_14 
REMARK    3  A    between atoms: C_16  and  C_17 
ROOT
HETATM    1  C   UNK N   1     165.854 155.790 154.668  0.00  0.00     0.137 C 
HETATM    2  C   UNK N   1     164.493 155.727 155.273  0.00  0.00     0.034 A 
HETATM    3  C   UNK N   1     163.592 154.687 155.303  0.00  0.00     0.028 A 
HETATM    4  C   UNK N   1     162.508 155.157 156.046  0.00  0.00     0.019 A 
HETATM    5  C   UNK N   1     162.822 156.452 156.447  0.00  0.00     0.091 A 
HETATM    6  N   UNK N   1     164.029 156.768 155.959  0.00  0.00    -0.357 N 
HETATM    7  C   UNK N   1     164.815 157.977 156.156  0.00  0.00     0.148 C 
HETATM    8  C   UNK N   1     166.285 157.579 156.427  0.00  0.00     0.147 C 
HETATM    9  N   UNK N   1     166.733 156.388 155.677  0.00  0.00    -0.335 N 
HETATM   10  C   UNK N   1     167.963 155.854 155.971  0.00  0.00     0.272 C 
HETATM   11  O   UNK N   1     168.651 156.386 156.834  0.00  0.00    -0.266 OA
ENDROOT
BRANCH  10  12
HETATM   12  C   UNK N   1     168.531 154.652 155.293  0.00  0.00     0.118 A 
HETATM   13  C   UNK N   1     168.241 153.316 155.517  0.00  0.00     0.064 A 
HETATM   14  C   UNK N   1     169.059 152.644 154.620  0.00  0.00     0.035 A 
HETATM   15  N   UNK N   1     169.781 153.534 153.915  0.00  0.00    -0.303 N 
HETATM   16  N   UNK N   1     169.461 154.749 154.321  0.00  0.00    -0.295 N 
ATOM     17  HN  UNK N   1     170.461 153.308 153.189  1.00  0.00     0.186 HD
HETATM   18  H   UNK N   1     169.838 155.588 153.972  0.00  0.00     0.187 HD
BRANCH  14  19
HETATM   19  C   UNK N   1     169.172 151.153 154.433  0.00  0.00    -0.007 C 
HETATM   20  C   UNK N   1     169.214 150.834 152.950  0.00  0.00     0.021 C 
HETATM   21  C   UNK N   1     170.426 150.592 155.082  0.00  0.00     0.021 C 
HETATM   22  C   UNK N   1     167.965 150.467 155.046  0.00  0.00     0.021 C 
ENDBRANCH  14  19
ENDBRANCH  10  12
BRANCH   1  23
HETATM   23  C   UNK N   1     165.775 156.703 153.445  0.00  0.00     0.027 C 
HETATM   24  C   UNK N   1     164.633 156.310 152.528  0.00  0.00     0.007 C 
ENDBRANCH   1  23
TORSDOF 3
ENDMDL
MODEL 8
REMARK VINA RESULT:      -5.4      2.827      6.697
REMARK  3 active torsions:
REMARK  status: ('A' for Active; 'I' for Inactive)
REMARK    1  A    between atoms: C_3  and  C_2 
REMARK       I    between atoms: N_11  and  C_12 
REMARK    2  A    between atoms: C_12  and  C_14 
REMARK    3  A    between atoms: C_16  and  C_17 
ROOT
HETATM    1  C   UNK N   1     166.384 155.132 155.258  0.00  0.00     0.137 C 
HETATM    2  C   UNK N   1     167.289 154.006 154.891  0.00  0.00     0.034 A 
HETATM    3  C   UNK N   1     167.373 152.739 155.423  0.00  0.00     0.028 A 
HETATM    4  C   UNK N   1     168.347 152.084 154.666  0.00  0.00     0.019 A 
HETATM    5  C   UNK N   1     168.784 152.985 153.701  0.00  0.00     0.091 A 
HETATM    6  N   UNK N   1     168.127 154.141 153.867  0.00  0.00    -0.357 N 
HETATM    7  C   UNK N   1     168.184 155.357 153.070  0.00  0.00     0.148 C 
HETATM    8  C   UNK N   1     166.746 155.881 152.852  0.00  0.00     0.147 C 
HETATM    9  N   UNK N   1     165.845 155.662 154.002  0.00  0.00    -0.335 N 
HETATM   10  C   UNK N   1     164.509 155.938 153.849  0.00  0.00     0.272 C 
HETATM   11  O   UNK N   1     164.110 156.366 152.773  0.00  0.00    -0.266 OA
ENDROOT
BRANCH  10  12
HETATM   12  C   UNK N   1     163.494 155.755 154.927  0.00  0.00     0.118 A 
HETATM   13  C   UNK N   1     163.064 156.670 155.875  0.00  0.00     0.064 A 
HETATM   14  C   UNK N   1     162.128 155.965 156.617  0.00  0.00     0.035 A 
HETATM   15  N   UNK N   1     162.017 154.715 156.132  0.00  0.00    -0.303 N 
HETATM   16  N   UNK N   1     162.842 154.588 155.108  0.00  0.00    -0.295 N 
ATOM     17  HN  UNK N   1     161.399 153.988 156.493  1.00  0.00     0.186 HD
HETATM   18  H   UNK N   1     162.962 153.776 154.566  0.00  0.00     0.187 HD
BRANCH  14  19
HETATM   19  C   UNK N   1     161.340 156.467 157.800  0.00  0.00    -0.007 C 
HETATM   20  C   UNK N   1     161.837 155.784 159.061  0.00  0.00     0.021 C 
HETATM   21  C   UNK N   1     161.480 157.969 157.979  0.00  0.00     0.021 C 
HETATM   22  C   UNK N   1     159.871 156.139 157.613  0.00  0.00     0.021 C 
ENDBRANCH  14  19
ENDBRANCH  10  12
BRANCH   1  23
HETATM   23  C   UNK N   1     167.233 156.201 155.948  0.00  0.00     0.027 C 
HETATM   24  C   UNK N   1     166.574 156.704 157.217  0.00  0.00     0.007 C 
ENDBRANCH   1  23
TORSDOF 3
ENDMDL
MODEL 9
REMARK VINA RESULT:      -5.3     12.446     15.227
REMARK  3 active torsions:
REMARK  status: ('A' for Active; 'I' for Inactive)
REMARK    1  A    between atoms: C_3  and  C_2 
REMARK       I    between atoms: N_11  and  C_12 
REMARK    2  A    between atoms: C_12  and  C_14 
REMARK    3  A    between atoms: C_16  and  C_17 
ROOT
HETATM    1  C   UNK N   1     155.922 147.373 156.790  0.00  0.00     0.137 C 
HETATM    2  C   UNK N   1     155.265 146.557 155.729  0.00  0.00     0.034 A 
HETATM    3  C   UNK N   1     155.604 145.317 155.238  0.00  0.00     0.028 A 
HETATM    4  C   UNK N   1     154.616 145.006 154.302  0.00  0.00     0.019 A 
HETATM    5  C   UNK N   1     153.718 146.068 154.292  0.00  0.00     0.091 A 
HETATM    6  N   UNK N   1     154.141 146.993 155.164  0.00  0.00    -0.357 N 
HETATM    7  C   UNK N   1     153.512 148.244 155.559  0.00  0.00     0.148 C 
HETATM    8  C   UNK N   1     153.608 148.390 157.096  0.00  0.00     0.147 C 
HETATM    9  N   UNK N   1     154.854 147.847 157.674  0.00  0.00    -0.335 N 
HETATM   10  C   UNK N   1     154.964 147.775 159.041  0.00  0.00     0.272 C 
HETATM   11  O   UNK N   1     154.034 148.172 159.733  0.00  0.00    -0.266 OA
ENDROOT
BRANCH  10  12
HETATM   12  C   UNK N   1     156.163 147.243 159.752  0.00  0.00     0.118 A 
HETATM   13  C   UNK N   1     156.413 145.947 160.175  0.00  0.00     0.064 A 
HETATM   14  C   UNK N   1     157.660 146.029 160.776  0.00  0.00     0.035 A 
HETATM   15  N   UNK N   1     158.111 147.294 160.708  0.00  0.00    -0.303 N 
HETATM   16  N   UNK N   1     157.206 148.029 160.086  0.00  0.00    -0.295 N 
ATOM     17  HN  UNK N   1     159.002 147.630 161.074  1.00  0.00     0.186 HD
HETATM   18  H   UNK N   1     157.281 148.992 159.898  0.00  0.00     0.187 HD
BRANCH  14  19
HETATM   19  C   UNK N   1     158.429 144.910 161.432  0.00  0.00    -0.007 C 
HETATM   20  C   UNK N   1     157.554 144.244 162.477  0.00  0.00     0.021 C 
HETATM   21  C   UNK N   1     158.866 143.857 160.428  0.00  0.00     0.021 C 
HETATM   22  C   UNK N   1     159.664 145.468 162.113  0.00  0.00     0.021 C 
ENDBRANCH  14  19
ENDBRANCH  10  12
BRANCH   1  23
HETATM   23  C   UNK N   1     156.594 148.564 156.106  0.00  0.00     0.027 C 
HETATM   24  C   UNK N   1     157.490 148.122 154.966  0.00  0.00     0.007 C 
ENDBRANCH   1  23
TORSDOF 3
ENDMDL
