MODEL 1
REMARK VINA RESULT:      -7.3      0.000      0.000
REMARK  4 active torsions:
REMARK  status: ('A' for Active; 'I' for Inactive)
REMARK    1  A    between atoms: C_3  and  C_2 
REMARK       I    between atoms: N_11  and  C_12 
REMARK    2  A    between atoms: C_12  and  C_14 
REMARK    3  A    between atoms: C_14  and  N_15 
REMARK    4  A    between atoms: C_19  and  C_21 
ROOT
HETATM    1  N   UNK N   1     167.889 154.282 154.235  0.00  0.00    -0.259 N 
HETATM    2  C   UNK N   1     167.350 154.547 153.042  0.00  0.00     0.326 A 
HETATM    3  O   UNK N   1     167.600 153.917 152.027  0.00  0.00    -0.247 OA
HETATM    4  N   UNK N   1     166.540 155.626 153.064  0.00  0.00    -0.321 N 
HETATM    5  C   UNK N   1     166.530 156.191 154.410  0.00  0.00     0.140 A 
HETATM    6  C   UNK N   1     167.264 157.530 154.392  0.00  0.00     0.054 C 
HETATM    7  C   UNK N   1     167.414 155.183 155.110  0.00  0.00     0.261 A 
HETATM    8  O   UNK N   1     167.735 155.215 156.290  0.00  0.00    -0.270 OA
HETATM    9  H   UNK N   1     166.036 155.976 152.294  0.00  0.00     0.165 HD
ENDROOT
BRANCH   1  10
HETATM   10  C   UNK N   1     168.911 153.286 154.505  0.00  0.00     0.239 C 
BRANCH  10  11
HETATM   11  C   UNK N   1     168.251 151.938 154.763  0.00  0.00     0.239 C 
HETATM   12  N   UNK N   1     168.675 150.795 154.147  0.00  0.00    -0.339 N 
HETATM   13  C   UNK N   1     167.957 149.536 154.417  0.00  0.00     0.147 C 
HETATM   14  C   UNK N   1     169.776 150.827 153.186  0.00  0.00     0.137 C 
HETATM   15  C   UNK N   1     168.302 148.398 153.431  0.00  0.00     0.148 C 
HETATM   16  N   UNK N   1     168.595 148.971 152.124  0.00  0.00    -0.357 N 
HETATM   17  C   UNK N   1     168.200 148.560 150.913  0.00  0.00     0.091 A 
HETATM   18  C   UNK N   1     169.283 150.102 151.981  0.00  0.00     0.034 A 
HETATM   19  C   UNK N   1     168.665 149.466 149.964  0.00  0.00     0.019 A 
HETATM   20  C   UNK N   1     169.350 150.465 150.656  0.00  0.00     0.028 A 
HETATM   21  O   UNK N   1     167.316 151.880 155.552  0.00  0.00    -0.271 OA
BRANCH  14  22
HETATM   22  C   UNK N   1     170.973 150.057 153.745  0.00  0.00     0.027 C 
HETATM   23  C   UNK N   1     171.179 150.349 155.218  0.00  0.00     0.007 C 
ENDBRANCH  14  22
ENDBRANCH  10  11
ENDBRANCH   1  10
BRANCH   5  24
HETATM   24  C   UNK N   1     165.119 156.318 154.964  0.00  0.00    -0.021 A 
HETATM   25  C   UNK N   1     164.365 155.163 155.247  0.00  0.00     0.013 A 
HETATM   26  C   UNK N   1     163.080 155.258 155.780  0.00  0.00     0.043 A 
HETATM   27  C   UNK N   1     162.529 156.510 156.043  0.00  0.00     0.116 A 
HETATM   28  F   UNK N   1     161.281 156.598 156.566  0.00  0.00    -0.206 F 
HETATM   29  C   UNK N   1     163.263 157.669 155.767  0.00  0.00     0.043 A 
HETATM   30  C   UNK N   1     164.555 157.576 155.230  0.00  0.00     0.013 A 
ENDBRANCH   5  24
TORSDOF 4
ENDMDL
MODEL 2
REMARK VINA RESULT:      -7.3      3.185      7.617
REMARK  4 active torsions:
REMARK  status: ('A' for Active; 'I' for Inactive)
REMARK    1  A    between atoms: C_3  and  C_2 
REMARK       I    between atoms: N_11  and  C_12 
REMARK    2  A    between atoms: C_12  and  C_14 
REMARK    3  A    between atoms: C_14  and  N_15 
REMARK    4  A    between atoms: C_19  and  C_21 
ROOT
HETATM    1  N   UNK N   1     168.782 151.628 153.892  0.00  0.00    -0.259 N 
HETATM    2  C   UNK N   1     169.836 150.892 153.531  0.00  0.00     0.326 A 
HETATM    3  O   UNK N   1     170.572 151.167 152.597  0.00  0.00    -0.247 OA
HETATM    4  N   UNK N   1     169.970 149.775 154.277  0.00  0.00    -0.321 N 
HETATM    5  C   UNK N   1     168.880 149.710 155.245  0.00  0.00     0.140 A 
HETATM    6  C   UNK N   1     167.936 148.575 154.853  0.00  0.00     0.054 C 
HETATM    7  C   UNK N   1     168.191 151.020 154.933  0.00  0.00     0.261 A 
HETATM    8  O   UNK N   1     167.183 151.443 155.481  0.00  0.00    -0.270 OA
HETATM    9  H   UNK N   1     170.690 149.110 154.181  0.00  0.00     0.165 HD
ENDROOT
BRANCH   1  10
HETATM   10  C   UNK N   1     168.285 152.801 153.194  0.00  0.00     0.239 C 
BRANCH  10  11
HETATM   11  C   UNK N   1     168.847 154.057 153.848  0.00  0.00     0.239 C 
HETATM   12  N   UNK N   1     168.049 154.949 154.507  0.00  0.00    -0.339 N 
HETATM   13  C   UNK N   1     168.663 156.163 155.076  0.00  0.00     0.147 C 
HETATM   14  C   UNK N   1     166.604 154.743 154.589  0.00  0.00     0.137 C 
HETATM   15  C   UNK N   1     167.638 157.241 155.495  0.00  0.00     0.148 C 
HETATM   16  N   UNK N   1     166.490 157.182 154.601  0.00  0.00    -0.357 N 
HETATM   17  C   UNK N   1     165.818 158.185 154.021  0.00  0.00     0.091 A 
HETATM   18  C   UNK N   1     165.986 156.030 154.165  0.00  0.00     0.034 A 
HETATM   19  C   UNK N   1     164.843 157.642 153.191  0.00  0.00     0.019 A 
HETATM   20  C   UNK N   1     164.962 156.255 153.274  0.00  0.00     0.028 A 
HETATM   21  O   UNK N   1     170.052 154.268 153.784  0.00  0.00    -0.271 OA
BRANCH  14  22
HETATM   22  C   UNK N   1     166.201 154.480 156.041  0.00  0.00     0.027 C 
HETATM   23  C   UNK N   1     164.749 154.057 156.144  0.00  0.00     0.007 C 
ENDBRANCH  14  22
ENDBRANCH  10  11
ENDBRANCH   1  10
BRANCH   5  24
HETATM   24  C   UNK N   1     169.391 149.565 156.670  0.00  0.00    -0.021 A 
HETATM   25  C   UNK N   1     170.139 150.601 157.261  0.00  0.00     0.013 A 
HETATM   26  C   UNK N   1     170.594 150.498 158.574  0.00  0.00     0.043 A 
HETATM   27  C   UNK N   1     170.306 149.358 159.322  0.00  0.00     0.116 A 
HETATM   28  F   UNK N   1     170.746 149.264 160.600  0.00  0.00    -0.206 F 
HETATM   29  C   UNK N   1     169.565 148.317 158.751  0.00  0.00     0.043 A 
HETATM   30  C   UNK N   1     169.108 148.418 157.429  0.00  0.00     0.013 A 
ENDBRANCH   5  24
TORSDOF 4
ENDMDL
MODEL 3
REMARK VINA RESULT:      -7.2      2.934      7.689
REMARK  4 active torsions:
REMARK  status: ('A' for Active; 'I' for Inactive)
REMARK    1  A    between atoms: C_3  and  C_2 
REMARK       I    between atoms: N_11  and  C_12 
REMARK    2  A    between atoms: C_12  and  C_14 
REMARK    3  A    between atoms: C_14  and  N_15 
REMARK    4  A    between atoms: C_19  and  C_21 
ROOT
HETATM    1  N   UNK N   1     168.938 152.775 154.806  0.00  0.00    -0.259 N 
HETATM    2  C   UNK N   1     167.831 152.083 155.085  0.00  0.00     0.326 A 
HETATM    3  O   UNK N   1     166.898 152.522 155.738  0.00  0.00    -0.247 OA
HETATM    4  N   UNK N   1     167.877 150.818 154.616  0.00  0.00    -0.321 N 
HETATM    5  C   UNK N   1     169.163 150.594 153.962  0.00  0.00     0.140 A 
HETATM    6  C   UNK N   1     169.994 149.637 154.813  0.00  0.00     0.054 C 
HETATM    7  C   UNK N   1     169.756 151.979 154.100  0.00  0.00     0.261 A 
HETATM    8  O   UNK N   1     170.862 152.321 153.707  0.00  0.00    -0.270 OA
HETATM    9  H   UNK N   1     167.157 150.152 154.703  0.00  0.00     0.165 HD
ENDROOT
BRANCH   1  10
HETATM   10  C   UNK N   1     169.257 154.105 155.298  0.00  0.00     0.239 C 
BRANCH  10  11
HETATM   11  C   UNK N   1     168.829 155.143 154.269  0.00  0.00     0.239 C 
HETATM   12  N   UNK N   1     167.827 156.036 154.516  0.00  0.00    -0.339 N 
HETATM   13  C   UNK N   1     167.442 156.983 153.453  0.00  0.00     0.147 C 
HETATM   14  C   UNK N   1     167.099 156.014 155.784  0.00  0.00     0.137 C 
HETATM   15  C   UNK N   1     166.101 157.705 153.716  0.00  0.00     0.148 C 
HETATM   16  N   UNK N   1     165.215 156.813 154.451  0.00  0.00    -0.357 N 
HETATM   17  C   UNK N   1     163.911 156.575 154.263  0.00  0.00     0.091 A 
HETATM   18  C   UNK N   1     165.654 156.016 155.423  0.00  0.00     0.034 A 
HETATM   19  C   UNK N   1     163.508 155.590 155.160  0.00  0.00     0.019 A 
HETATM   20  C   UNK N   1     164.634 155.222 155.895  0.00  0.00     0.028 A 
HETATM   21  O   UNK N   1     169.408 155.179 153.190  0.00  0.00    -0.271 OA
BRANCH  14  22
HETATM   22  C   UNK N   1     167.391 157.292 156.571  0.00  0.00     0.027 C 
HETATM   23  C   UNK N   1     168.473 157.066 157.609  0.00  0.00     0.007 C 
ENDBRANCH  14  22
ENDBRANCH  10  11
ENDBRANCH   1  10
BRANCH   5  24
HETATM   24  C   UNK N   1     168.996 150.095 152.535  0.00  0.00    -0.021 A 
HETATM   25  C   UNK N   1     168.774 148.728 152.285  0.00  0.00     0.013 A 
HETATM   26  C   UNK N   1     168.592 148.255 150.987  0.00  0.00     0.043 A 
HETATM   27  C   UNK N   1     168.626 149.143 149.914  0.00  0.00     0.116 A 
HETATM   28  F   UNK N   1     168.444 148.681 148.653  0.00  0.00    -0.206 F 
HETATM   29  C   UNK N   1     168.847 150.506 150.142  0.00  0.00     0.043 A 
HETATM   30  C   UNK N   1     169.031 150.983 151.447  0.00  0.00     0.013 A 
ENDBRANCH   5  24
TORSDOF 4
ENDMDL
MODEL 4
REMARK VINA RESULT:      -7.1      3.437      5.399
REMARK  4 active torsions:
REMARK  status: ('A' for Active; 'I' for Inactive)
REMARK    1  A    between atoms: C_3  and  C_2 
REMARK       I    between atoms: N_11  and  C_12 
REMARK    2  A    between atoms: C_12  and  C_14 
REMARK    3  A    between atoms: C_14  and  N_15 
REMARK    4  A    between atoms: C_19  and  C_21 
ROOT
HETATM    1  N   UNK N   1     163.180 155.602 155.785  0.00  0.00    -0.259 N 
HETATM    2  C   UNK N   1     162.078 154.874 155.593  0.00  0.00     0.326 A 
HETATM    3  O   UNK N   1     161.938 154.078 154.678  0.00  0.00    -0.247 OA
HETATM    4  N   UNK N   1     161.107 155.153 156.488  0.00  0.00    -0.321 N 
HETATM    5  C   UNK N   1     161.569 156.207 157.386  0.00  0.00     0.140 A 
HETATM    6  C   UNK N   1     160.791 157.488 157.090  0.00  0.00     0.054 C 
HETATM    7  C   UNK N   1     162.977 156.383 156.858  0.00  0.00     0.261 A 
HETATM    8  O   UNK N   1     163.800 157.182 157.281  0.00  0.00    -0.270 OA
HETATM    9  H   UNK N   1     160.226 154.715 156.527  0.00  0.00     0.165 HD
ENDROOT
BRANCH   1  10
HETATM   10  C   UNK N   1     164.337 155.644 154.907  0.00  0.00     0.239 C 
BRANCH  10  11
HETATM   11  C   UNK N   1     165.296 154.520 155.278  0.00  0.00     0.239 C 
HETATM   12  N   UNK N   1     166.518 154.386 154.682  0.00  0.00    -0.339 N 
HETATM   13  C   UNK N   1     167.372 153.247 155.066  0.00  0.00     0.147 C 
HETATM   14  C   UNK N   1     166.946 155.312 153.635  0.00  0.00     0.137 C 
HETATM   15  C   UNK N   1     168.560 153.008 154.107  0.00  0.00     0.148 C 
HETATM   16  N   UNK N   1     168.168 153.388 152.756  0.00  0.00    -0.357 N 
HETATM   17  C   UNK N   1     168.392 152.750 151.600  0.00  0.00     0.091 A 
HETATM   18  C   UNK N   1     167.417 154.459 152.508  0.00  0.00     0.034 A 
HETATM   19  C   UNK N   1     167.763 153.454 150.578  0.00  0.00     0.019 A 
HETATM   20  C   UNK N   1     167.124 154.545 151.166  0.00  0.00     0.028 A 
HETATM   21  O   UNK N   1     164.961 153.718 156.141  0.00  0.00    -0.271 OA
BRANCH  14  22
HETATM   22  C   UNK N   1     168.133 156.140 154.130  0.00  0.00     0.027 C 
HETATM   23  C   UNK N   1     168.509 157.218 153.133  0.00  0.00     0.007 C 
ENDBRANCH  14  22
ENDBRANCH  10  11
ENDBRANCH   1  10
BRANCH   5  24
HETATM   24  C   UNK N   1     161.466 155.797 158.846  0.00  0.00    -0.021 A 
HETATM   25  C   UNK N   1     160.250 155.948 159.539  0.00  0.00     0.013 A 
HETATM   26  C   UNK N   1     160.128 155.553 160.870  0.00  0.00     0.043 A 
HETATM   27  C   UNK N   1     161.221 154.997 161.532  0.00  0.00     0.116 A 
HETATM   28  F   UNK N   1     161.097 154.610 162.825  0.00  0.00    -0.206 F 
HETATM   29  C   UNK N   1     162.439 154.841 160.860  0.00  0.00     0.043 A 
HETATM   30  C   UNK N   1     162.563 155.238 159.522  0.00  0.00     0.013 A 
ENDBRANCH   5  24
TORSDOF 4
ENDMDL
MODEL 5
REMARK VINA RESULT:      -7.1      2.761      4.015
REMARK  4 active torsions:
REMARK  status: ('A' for Active; 'I' for Inactive)
REMARK    1  A    between atoms: C_3  and  C_2 
REMARK       I    between atoms: N_11  and  C_12 
REMARK    2  A    between atoms: C_12  and  C_14 
REMARK    3  A    between atoms: C_14  and  N_15 
REMARK    4  A    between atoms: C_19  and  C_21 
ROOT
HETATM    1  N   UNK N   1     167.032 154.005 155.194  0.00  0.00    -0.259 N 
HETATM    2  C   UNK N   1     165.817 154.051 155.746  0.00  0.00     0.326 A 
HETATM    3  O   UNK N   1     165.244 153.080 156.215  0.00  0.00    -0.247 OA
HETATM    4  N   UNK N   1     165.262 155.279 155.680  0.00  0.00    -0.321 N 
HETATM    5  C   UNK N   1     166.174 156.182 154.986  0.00  0.00     0.140 A 
HETATM    6  C   UNK N   1     165.583 156.533 153.622  0.00  0.00     0.054 C 
HETATM    7  C   UNK N   1     167.336 155.239 154.763  0.00  0.00     0.261 A 
HETATM    8  O   UNK N   1     168.381 155.520 154.194  0.00  0.00    -0.270 OA
HETATM    9  H   UNK N   1     164.380 155.525 156.043  0.00  0.00     0.165 HD
ENDROOT
BRANCH   1  10
HETATM   10  C   UNK N   1     167.822 152.806 154.974  0.00  0.00     0.239 C 
BRANCH  10  11
HETATM   11  C   UNK N   1     168.624 152.489 156.230  0.00  0.00     0.239 C 
HETATM   12  N   UNK N   1     169.310 151.316 156.373  0.00  0.00    -0.339 N 
HETATM   13  C   UNK N   1     170.028 151.065 157.637  0.00  0.00     0.147 C 
HETATM   14  C   UNK N   1     169.279 150.297 155.326  0.00  0.00     0.137 C 
HETATM   15  C   UNK N   1     170.478 149.598 157.817  0.00  0.00     0.148 C 
HETATM   16  N   UNK N   1     169.509 148.719 157.175  0.00  0.00    -0.357 N 
HETATM   17  C   UNK N   1     168.983 147.572 157.623  0.00  0.00     0.091 A 
HETATM   18  C   UNK N   1     168.937 149.020 156.012  0.00  0.00     0.034 A 
HETATM   19  C   UNK N   1     168.044 147.126 156.697  0.00  0.00     0.019 A 
HETATM   20  C   UNK N   1     168.006 148.067 155.669  0.00  0.00     0.028 A 
HETATM   21  O   UNK N   1     168.658 153.315 157.134  0.00  0.00    -0.271 OA
BRANCH  14  22
HETATM   22  C   UNK N   1     170.671 150.146 154.711  0.00  0.00     0.027 C 
HETATM   23  C   UNK N   1     170.734 150.763 153.327  0.00  0.00     0.007 C 
ENDBRANCH  14  22
ENDBRANCH  10  11
ENDBRANCH   1  10
BRANCH   5  24
HETATM   24  C   UNK N   1     166.488 157.421 155.811  0.00  0.00    -0.021 A 
HETATM   25  C   UNK N   1     165.958 158.671 155.440  0.00  0.00     0.013 A 
HETATM   26  C   UNK N   1     166.212 159.812 156.198  0.00  0.00     0.043 A 
HETATM   27  C   UNK N   1     166.998 159.723 157.345  0.00  0.00     0.116 A 
HETATM   28  F   UNK N   1     167.240 160.834 158.082  0.00  0.00    -0.206 F 
HETATM   29  C   UNK N   1     167.536 158.489 157.729  0.00  0.00     0.043 A 
HETATM   30  C   UNK N   1     167.282 157.340 156.967  0.00  0.00     0.013 A 
ENDBRANCH   5  24
TORSDOF 4
ENDMDL
MODEL 6
REMARK VINA RESULT:      -6.9      3.509      7.617
REMARK  4 active torsions:
REMARK  status: ('A' for Active; 'I' for Inactive)
REMARK    1  A    between atoms: C_3  and  C_2 
REMARK       I    between atoms: N_11  and  C_12 
REMARK    2  A    between atoms: C_12  and  C_14 
REMARK    3  A    between atoms: C_14  and  N_15 
REMARK    4  A    between atoms: C_19  and  C_21 
ROOT
HETATM    1  N   UNK N   1     168.324 154.826 155.084  0.00  0.00    -0.259 N 
HETATM    2  C   UNK N   1     167.535 153.764 155.265  0.00  0.00     0.326 A 
HETATM    3  O   UNK N   1     166.846 153.588 156.257  0.00  0.00    -0.247 OA
HETATM    4  N   UNK N   1     167.624 152.872 154.256  0.00  0.00    -0.321 N 
HETATM    5  C   UNK N   1     168.596 153.348 153.277  0.00  0.00     0.140 A 
HETATM    6  C   UNK N   1     169.834 152.456 153.333  0.00  0.00     0.054 C 
HETATM    7  C   UNK N   1     168.950 154.679 153.906  0.00  0.00     0.261 A 
HETATM    8  O   UNK N   1     169.757 155.483 153.462  0.00  0.00    -0.270 OA
HETATM    9  H   UNK N   1     167.112 152.033 154.192  0.00  0.00     0.165 HD
ENDROOT
BRANCH   1  10
HETATM   10  C   UNK N   1     168.567 155.881 156.053  0.00  0.00     0.239 C 
BRANCH  10  11
HETATM   11  C   UNK N   1     167.462 156.926 155.952  0.00  0.00     0.239 C 
HETATM   12  N   UNK N   1     166.631 157.202 157.001  0.00  0.00    -0.339 N 
HETATM   13  C   UNK N   1     165.559 158.197 156.812  0.00  0.00     0.147 C 
HETATM   14  C   UNK N   1     166.755 156.480 158.266  0.00  0.00     0.137 C 
HETATM   15  C   UNK N   1     164.493 158.184 157.930  0.00  0.00     0.148 C 
HETATM   16  N   UNK N   1     164.343 156.825 158.432  0.00  0.00    -0.357 N 
HETATM   17  C   UNK N   1     163.223 156.150 158.722  0.00  0.00     0.091 A 
HETATM   18  C   UNK N   1     165.381 156.010 158.600  0.00  0.00     0.034 A 
HETATM   19  C   UNK N   1     163.571 154.857 159.097  0.00  0.00     0.019 A 
HETATM   20  C   UNK N   1     164.959 154.764 159.004  0.00  0.00     0.028 A 
HETATM   21  O   UNK N   1     167.322 157.538 154.901  0.00  0.00    -0.271 OA
BRANCH  14  22
HETATM   22  C   UNK N   1     167.207 157.439 159.367  0.00  0.00     0.027 C 
HETATM   23  C   UNK N   1     168.681 157.771 159.239  0.00  0.00     0.007 C 
ENDBRANCH  14  22
ENDBRANCH  10  11
ENDBRANCH   1  10
BRANCH   5  24
HETATM   24  C   UNK N   1     168.006 153.425 151.878  0.00  0.00    -0.021 A 
HETATM   25  C   UNK N   1     168.232 152.383 150.958  0.00  0.00     0.013 A 
HETATM   26  C   UNK N   1     167.677 152.422 149.680  0.00  0.00     0.043 A 
HETATM   27  C   UNK N   1     166.883 153.502 149.300  0.00  0.00     0.116 A 
HETATM   28  F   UNK N   1     166.342 153.534 148.058  0.00  0.00    -0.206 F 
HETATM   29  C   UNK N   1     166.649 154.548 150.200  0.00  0.00     0.043 A 
HETATM   30  C   UNK N   1     167.207 154.511 151.486  0.00  0.00     0.013 A 
ENDBRANCH   5  24
TORSDOF 4
ENDMDL
MODEL 7
REMARK VINA RESULT:      -6.8      2.906      7.581
REMARK  4 active torsions:
REMARK  status: ('A' for Active; 'I' for Inactive)
REMARK    1  A    between atoms: C_3  and  C_2 
REMARK       I    between atoms: N_11  and  C_12 
REMARK    2  A    between atoms: C_12  and  C_14 
REMARK    3  A    between atoms: C_14  and  N_15 
REMARK    4  A    between atoms: C_19  and  C_21 
ROOT
HETATM    1  N   UNK N   1     167.981 152.422 155.230  0.00  0.00    -0.259 N 
HETATM    2  C   UNK N   1     167.714 151.122 155.086  0.00  0.00     0.326 A 
HETATM    3  O   UNK N   1     166.991 150.487 155.838  0.00  0.00    -0.247 OA
HETATM    4  N   UNK N   1     168.376 150.565 154.050  0.00  0.00    -0.321 N 
HETATM    5  C   UNK N   1     169.215 151.578 153.417  0.00  0.00     0.140 A 
HETATM    6  C   UNK N   1     170.680 151.260 153.705  0.00  0.00     0.054 C 
HETATM    7  C   UNK N   1     168.825 152.780 154.249  0.00  0.00     0.261 A 
HETATM    8  O   UNK N   1     169.272 153.910 154.119  0.00  0.00    -0.270 OA
HETATM    9  H   UNK N   1     168.304 149.624 153.768  0.00  0.00     0.165 HD
ENDROOT
BRANCH   1  10
HETATM   10  C   UNK N   1     167.546 153.264 156.331  0.00  0.00     0.239 C 
BRANCH  10  11
HETATM   11  C   UNK N   1     166.103 153.696 156.101  0.00  0.00     0.239 C 
HETATM   12  N   UNK N   1     165.790 154.914 155.569  0.00  0.00    -0.339 N 
HETATM   13  C   UNK N   1     164.369 155.276 155.416  0.00  0.00     0.147 C 
HETATM   14  C   UNK N   1     166.838 155.872 155.220  0.00  0.00     0.137 C 
HETATM   15  C   UNK N   1     164.135 156.776 155.127  0.00  0.00     0.148 C 
HETATM   16  N   UNK N   1     165.167 157.558 155.794  0.00  0.00    -0.357 N 
HETATM   17  C   UNK N   1     165.047 158.693 156.494  0.00  0.00     0.091 A 
HETATM   18  C   UNK N   1     166.436 157.161 155.850  0.00  0.00     0.034 A 
HETATM   19  C   UNK N   1     166.295 159.030 157.007  0.00  0.00     0.019 A 
HETATM   20  C   UNK N   1     167.185 158.035 156.604  0.00  0.00     0.028 A 
HETATM   21  O   UNK N   1     165.201 152.923 156.397  0.00  0.00    -0.271 OA
BRANCH  14  22
HETATM   22  C   UNK N   1     166.869 156.075 153.705  0.00  0.00     0.027 C 
HETATM   23  C   UNK N   1     167.959 157.048 153.300  0.00  0.00     0.007 C 
ENDBRANCH  14  22
ENDBRANCH  10  11
ENDBRANCH   1  10
BRANCH   5  24
HETATM   24  C   UNK N   1     168.936 151.698 151.927  0.00  0.00    -0.021 A 
HETATM   25  C   UNK N   1     168.239 152.814 151.426  0.00  0.00     0.013 A 
HETATM   26  C   UNK N   1     167.996 152.955 150.061  0.00  0.00     0.043 A 
HETATM   27  C   UNK N   1     168.450 151.984 149.171  0.00  0.00     0.116 A 
HETATM   28  F   UNK N   1     168.216 152.127 147.843  0.00  0.00    -0.206 F 
HETATM   29  C   UNK N   1     169.144 150.867 149.650  0.00  0.00     0.043 A 
HETATM   30  C   UNK N   1     169.387 150.722 151.023  0.00  0.00     0.013 A 
ENDBRANCH   5  24
TORSDOF 4
ENDMDL
MODEL 8
REMARK VINA RESULT:      -6.5     12.804     14.980
REMARK  4 active torsions:
REMARK  status: ('A' for Active; 'I' for Inactive)
REMARK    1  A    between atoms: C_3  and  C_2 
REMARK       I    between atoms: N_11  and  C_12 
REMARK    2  A    between atoms: C_12  and  C_14 
REMARK    3  A    between atoms: C_14  and  N_15 
REMARK    4  A    between atoms: C_19  and  C_21 
ROOT
HETATM    1  N   UNK N   1     158.447 145.501 159.599  0.00  0.00    -0.259 N 
HETATM    2  C   UNK N   1     157.944 146.517 160.304  0.00  0.00     0.326 A 
HETATM    3  O   UNK N   1     157.448 147.514 159.805  0.00  0.00    -0.247 OA
HETATM    4  N   UNK N   1     158.096 146.352 161.635  0.00  0.00    -0.321 N 
HETATM    5  C   UNK N   1     158.802 145.099 161.887  0.00  0.00     0.140 A 
HETATM    6  C   UNK N   1     160.204 145.414 162.404  0.00  0.00     0.054 C 
HETATM    7  C   UNK N   1     158.930 144.596 160.465  0.00  0.00     0.261 A 
HETATM    8  O   UNK N   1     159.473 143.556 160.125  0.00  0.00    -0.270 OA
HETATM    9  H   UNK N   1     157.781 146.978 162.327  0.00  0.00     0.165 HD
ENDROOT
BRANCH   1  10
HETATM   10  C   UNK N   1     158.573 145.449 158.153  0.00  0.00     0.239 C 
BRANCH  10  11
HETATM   11  C   UNK N   1     157.215 145.139 157.535  0.00  0.00     0.239 C 
HETATM   12  N   UNK N   1     156.598 146.001 156.674  0.00  0.00    -0.339 N 
HETATM   13  C   UNK N   1     155.265 145.648 156.152  0.00  0.00     0.147 C 
HETATM   14  C   UNK N   1     157.213 147.282 156.327  0.00  0.00     0.137 C 
HETATM   15  C   UNK N   1     154.532 146.825 155.468  0.00  0.00     0.148 C 
HETATM   16  N   UNK N   1     154.910 148.069 156.124  0.00  0.00    -0.357 N 
HETATM   17  C   UNK N   1     154.137 149.099 156.491  0.00  0.00     0.091 A 
HETATM   18  C   UNK N   1     156.154 148.309 156.532  0.00  0.00     0.034 A 
HETATM   19  C   UNK N   1     154.930 150.033 157.152  0.00  0.00     0.019 A 
HETATM   20  C   UNK N   1     156.224 149.515 157.190  0.00  0.00     0.028 A 
HETATM   21  O   UNK N   1     156.665 144.082 157.818  0.00  0.00    -0.271 OA
BRANCH  14  22
HETATM   22  C   UNK N   1     157.596 147.286 154.846  0.00  0.00     0.027 C 
HETATM   23  C   UNK N   1     158.740 146.331 154.568  0.00  0.00     0.007 C 
ENDBRANCH  14  22
ENDBRANCH  10  11
ENDBRANCH   1  10
BRANCH   5  24
HETATM   24  C   UNK N   1     158.032 144.191 162.833  0.00  0.00    -0.021 A 
HETATM   25  C   UNK N   1     156.840 143.575 162.406  0.00  0.00     0.013 A 
HETATM   26  C   UNK N   1     156.133 142.718 163.250  0.00  0.00     0.043 A 
HETATM   27  C   UNK N   1     156.609 142.461 164.534  0.00  0.00     0.116 A 
HETATM   28  F   UNK N   1     155.921 141.624 165.349  0.00  0.00    -0.206 F 
HETATM   29  C   UNK N   1     157.791 143.066 164.976  0.00  0.00     0.043 A 
HETATM   30  C   UNK N   1     158.502 143.928 164.129  0.00  0.00     0.013 A 
ENDBRANCH   5  24
TORSDOF 4
ENDMDL
MODEL 9
REMARK VINA RESULT:      -6.5      3.083      7.535
REMARK  4 active torsions:
REMARK  status: ('A' for Active; 'I' for Inactive)
REMARK    1  A    between atoms: C_3  and  C_2 
REMARK       I    between atoms: N_11  and  C_12 
REMARK    2  A    between atoms: C_12  and  C_14 
REMARK    3  A    between atoms: C_14  and  N_15 
REMARK    4  A    between atoms: C_19  and  C_21 
ROOT
HETATM    1  N   UNK N   1     167.299 153.599 155.246  0.00  0.00    -0.259 N 
HETATM    2  C   UNK N   1     167.541 152.312 154.986  0.00  0.00     0.326 A 
HETATM    3  O   UNK N   1     167.249 151.398 155.741  0.00  0.00    -0.247 OA
HETATM    4  N   UNK N   1     168.197 152.131 153.821  0.00  0.00    -0.321 N 
HETATM    5  C   UNK N   1     168.465 153.430 153.213  0.00  0.00     0.140 A 
HETATM    6  C   UNK N   1     169.964 153.712 153.285  0.00  0.00     0.054 C 
HETATM    7  C   UNK N   1     167.773 154.323 154.220  0.00  0.00     0.261 A 
HETATM    8  O   UNK N   1     167.718 155.543 154.169  0.00  0.00    -0.270 OA
HETATM    9  H   UNK N   1     168.454 151.259 153.442  0.00  0.00     0.165 HD
ENDROOT
BRANCH   1  10
HETATM   10  C   UNK N   1     166.748 154.129 156.482  0.00  0.00     0.239 C 
BRANCH  10  11
HETATM   11  C   UNK N   1     165.242 153.905 156.503  0.00  0.00     0.239 C 
HETATM   12  N   UNK N   1     164.360 154.880 156.134  0.00  0.00    -0.339 N 
HETATM   13  C   UNK N   1     162.915 154.600 156.223  0.00  0.00     0.147 C 
HETATM   14  C   UNK N   1     164.833 156.202 155.723  0.00  0.00     0.137 C 
HETATM   15  C   UNK N   1     162.028 155.860 156.105  0.00  0.00     0.148 C 
HETATM   16  N   UNK N   1     162.732 156.997 156.682  0.00  0.00    -0.357 N 
HETATM   17  C   UNK N   1     162.267 157.957 157.491  0.00  0.00     0.091 A 
HETATM   18  C   UNK N   1     164.040 157.181 156.517  0.00  0.00     0.034 A 
HETATM   19  C   UNK N   1     163.326 158.788 157.845  0.00  0.00     0.019 A 
HETATM   20  C   UNK N   1     164.468 158.278 157.229  0.00  0.00     0.028 A 
HETATM   21  O   UNK N   1     164.812 152.814 156.857  0.00  0.00    -0.271 OA
BRANCH  14  22
HETATM   22  C   UNK N   1     164.518 156.426 154.244  0.00  0.00     0.027 C 
HETATM   23  C   UNK N   1     165.134 157.716 153.737  0.00  0.00     0.007 C 
ENDBRANCH  14  22
ENDBRANCH  10  11
ENDBRANCH   1  10
BRANCH   5  24
HETATM   24  C   UNK N   1     167.933 153.515 151.791  0.00  0.00    -0.021 A 
HETATM   25  C   UNK N   1     168.199 152.481 150.874  0.00  0.00     0.013 A 
HETATM   26  C   UNK N   1     167.697 152.527 149.574  0.00  0.00     0.043 A 
HETATM   27  C   UNK N   1     166.917 153.609 149.170  0.00  0.00     0.116 A 
HETATM   28  F   UNK N   1     166.428 153.648 147.906  0.00  0.00    -0.206 F 
HETATM   29  C   UNK N   1     166.644 154.648 150.067  0.00  0.00     0.043 A 
HETATM   30  C   UNK N   1     167.148 154.603 151.374  0.00  0.00     0.013 A 
ENDBRANCH   5  24
TORSDOF 4
ENDMDL
