MODEL 1
REMARK VINA RESULT:      -5.9      0.000      0.000
REMARK  4 active torsions:
REMARK  status: ('A' for Active; 'I' for Inactive)
REMARK       I    between atoms: C_2  and  N_4 
REMARK    1  A    between atoms: N_4  and  C_5 
REMARK    2  A    between atoms: C_5  and  C_6 
REMARK    3  A    between atoms: C_9  and  C_10 
REMARK       I    between atoms: C_10  and  N_12 
REMARK    4  A    between atoms: C_15  and  O_16 
ROOT
HETATM    1  C   UNK N   1     168.730 154.727 153.738  0.00  0.00     0.260 C 
HETATM    2  O   UNK N   1     169.839 155.159 153.461  0.00  0.00    -0.267 OA
HETATM    3  N   UNK N   1     167.650 155.576 153.712  0.00  0.00    -0.347 N 
HETATM    4  C   UNK N   1     167.833 156.977 153.346  0.00  0.00     0.129 C 
HETATM    5  C   UNK N   1     166.869 157.913 154.108  0.00  0.00     0.058 C 
HETATM    6  C   UNK N   1     166.419 157.286 155.425  0.00  0.00     0.064 C 
HETATM    7  C   UNK N   1     165.452 158.209 156.175  0.00  0.00     0.038 C 
HETATM    8  C   UNK N   1     164.565 157.474 157.205  0.00  0.00     0.003 C 
HETATM    9  C   UNK N   1     165.115 156.101 157.614  0.00  0.00     0.001 C 
HETATM   10  C   UNK N   1     165.376 155.182 156.407  0.00  0.00     0.009 C 
HETATM   11  C   UNK N   1     165.682 155.971 155.128  0.00  0.00     0.038 C 
HETATM   12  C   UNK N   1     166.316 155.115 154.030  0.00  0.00     0.133 C 
ENDROOT
BRANCH   1  13
HETATM   13  C   UNK N   1     168.604 153.278 154.076  0.00  0.00     0.073 A 
HETATM   14  C   UNK N   1     168.102 152.701 155.254  0.00  0.00     0.026 A 
HETATM   15  C   UNK N   1     168.104 151.277 155.237  0.00  0.00     0.018 A 
HETATM   16  C   UNK N   1     168.608 150.752 154.047  0.00  0.00     0.001 A 
HETATM   17  S   UNK N   1     169.022 152.023 153.072  0.00  0.00    -0.088 SA
BRANCH  16  18
HETATM   18  C   UNK N   1     168.703 149.309 153.696  0.00  0.00     0.168 C 
BRANCH  18  19
HETATM   19  N   UNK N   1     168.385 149.114 152.304  0.00  0.00    -0.357 N 
HETATM   20  C   UNK N   1     169.284 148.596 151.435  0.00  0.00     0.213 C 
HETATM   21  C   UNK N   1     168.886 148.359 150.018  0.00  0.00     0.117 C 
HETATM   22  O   UNK N   1     170.416 148.315 151.799  0.00  0.00    -0.274 OA
HETATM   23  H   UNK N   1     167.491 149.366 151.976  0.00  0.00     0.162 HD
ENDBRANCH  18  19
ENDBRANCH  16  18
ENDBRANCH   1  13
BRANCH   6  24
HETATM   24  O   UNK N   1     167.546 157.057 156.223  0.00  0.00    -0.389 OA
HETATM   25  H   UNK N   1     167.868 157.900 156.580  0.00  0.00     0.210 HD
ENDBRANCH   6  24
TORSDOF 4
ENDMDL
MODEL 2
REMARK VINA RESULT:      -5.9      4.001      7.833
REMARK  4 active torsions:
REMARK  status: ('A' for Active; 'I' for Inactive)
REMARK       I    between atoms: C_2  and  N_4 
REMARK    1  A    between atoms: N_4  and  C_5 
REMARK    2  A    between atoms: C_5  and  C_6 
REMARK    3  A    between atoms: C_9  and  C_10 
REMARK       I    between atoms: C_10  and  N_12 
REMARK    4  A    between atoms: C_15  and  O_16 
ROOT
HETATM    1  C   UNK N   1     164.672 157.400 154.287  0.00  0.00     0.260 C 
HETATM    2  O   UNK N   1     164.343 158.111 153.349  0.00  0.00    -0.267 OA
HETATM    3  N   UNK N   1     166.006 157.216 154.558  0.00  0.00    -0.347 N 
HETATM    4  C   UNK N   1     167.015 157.872 153.732  0.00  0.00     0.129 C 
HETATM    5  C   UNK N   1     168.289 157.015 153.571  0.00  0.00     0.058 C 
HETATM    6  C   UNK N   1     167.984 155.532 153.765  0.00  0.00     0.064 C 
HETATM    7  C   UNK N   1     169.251 154.682 153.619  0.00  0.00     0.038 C 
HETATM    8  C   UNK N   1     169.151 153.297 154.296  0.00  0.00     0.003 C 
HETATM    9  C   UNK N   1     167.708 152.853 154.567  0.00  0.00     0.001 C 
HETATM   10  C   UNK N   1     166.913 153.887 155.385  0.00  0.00     0.009 C 
HETATM   11  C   UNK N   1     167.433 155.316 155.183  0.00  0.00     0.038 C 
HETATM   12  C   UNK N   1     166.448 156.386 155.658  0.00  0.00     0.133 C 
ENDROOT
BRANCH   1  13
HETATM   13  C   UNK N   1     163.591 156.780 155.111  0.00  0.00     0.073 A 
HETATM   14  C   UNK N   1     163.245 155.422 155.209  0.00  0.00     0.026 A 
HETATM   15  C   UNK N   1     162.171 155.172 156.111  0.00  0.00     0.018 A 
HETATM   16  C   UNK N   1     161.689 156.335 156.711  0.00  0.00     0.001 A 
HETATM   17  S   UNK N   1     162.575 157.606 156.133  0.00  0.00    -0.088 SA
BRANCH  16  18
HETATM   18  C   UNK N   1     160.607 156.411 157.731  0.00  0.00     0.168 C 
BRANCH  18  19
HETATM   19  N   UNK N   1     160.865 155.477 158.799  0.00  0.00    -0.357 N 
HETATM   20  C   UNK N   1     161.341 155.882 159.999  0.00  0.00     0.213 C 
HETATM   21  C   UNK N   1     161.534 154.886 161.090  0.00  0.00     0.117 C 
HETATM   22  O   UNK N   1     161.609 157.057 160.201  0.00  0.00    -0.274 OA
HETATM   23  H   UNK N   1     160.691 154.519 158.650  0.00  0.00     0.162 HD
ENDBRANCH  18  19
ENDBRANCH  16  18
ENDBRANCH   1  13
BRANCH   6  24
HETATM   24  O   UNK N   1     167.050 155.134 152.801  0.00  0.00    -0.389 OA
HETATM   25  H   UNK N   1     166.877 154.184 152.890  0.00  0.00     0.210 HD
ENDBRANCH   6  24
TORSDOF 4
ENDMDL
MODEL 3
REMARK VINA RESULT:      -5.7     12.825     14.176
REMARK  4 active torsions:
REMARK  status: ('A' for Active; 'I' for Inactive)
REMARK       I    between atoms: C_2  and  N_4 
REMARK    1  A    between atoms: N_4  and  C_5 
REMARK    2  A    between atoms: C_5  and  C_6 
REMARK    3  A    between atoms: C_9  and  C_10 
REMARK       I    between atoms: C_10  and  N_12 
REMARK    4  A    between atoms: C_15  and  O_16 
ROOT
HETATM    1  C   UNK N   1     158.546 144.963 158.425  0.00  0.00     0.260 C 
HETATM    2  O   UNK N   1     159.224 144.261 157.690  0.00  0.00    -0.267 OA
HETATM    3  N   UNK N   1     157.247 145.246 158.079  0.00  0.00    -0.347 N 
HETATM    4  C   UNK N   1     156.687 144.703 156.845  0.00  0.00     0.129 C 
HETATM    5  C   UNK N   1     155.675 145.666 156.187  0.00  0.00     0.058 C 
HETATM    6  C   UNK N   1     155.943 147.111 156.597  0.00  0.00     0.064 C 
HETATM    7  C   UNK N   1     154.930 148.066 155.954  0.00  0.00     0.038 C 
HETATM    8  C   UNK N   1     154.790 149.414 156.696  0.00  0.00     0.003 C 
HETATM    9  C   UNK N   1     155.976 149.729 157.617  0.00  0.00     0.001 C 
HETATM   10  C   UNK N   1     156.253 148.607 158.633  0.00  0.00     0.009 C 
HETATM   11  C   UNK N   1     155.802 147.233 158.122  0.00  0.00     0.038 C 
HETATM   12  C   UNK N   1     156.402 146.070 158.916  0.00  0.00     0.133 C 
ENDROOT
BRANCH   1  13
HETATM   13  C   UNK N   1     159.168 145.465 159.687  0.00  0.00     0.073 A 
HETATM   14  C   UNK N   1     159.850 146.675 159.898  0.00  0.00     0.026 A 
HETATM   15  C   UNK N   1     160.300 146.849 161.238  0.00  0.00     0.018 A 
HETATM   16  C   UNK N   1     159.966 145.775 162.063  0.00  0.00     0.001 A 
HETATM   17  S   UNK N   1     159.144 144.671 161.146  0.00  0.00    -0.088 SA
BRANCH  16  18
HETATM   18  C   UNK N   1     160.249 145.669 163.521  0.00  0.00     0.168 C 
BRANCH  18  19
HETATM   19  N   UNK N   1     161.469 146.367 163.842  0.00  0.00    -0.357 N 
HETATM   20  C   UNK N   1     161.457 147.614 164.367  0.00  0.00     0.213 C 
HETATM   21  C   UNK N   1     162.743 148.270 164.737  0.00  0.00     0.117 C 
HETATM   22  O   UNK N   1     160.404 148.208 164.547  0.00  0.00    -0.274 OA
HETATM   23  H   UNK N   1     162.333 145.926 163.673  0.00  0.00     0.162 HD
ENDBRANCH  18  19
ENDBRANCH  16  18
ENDBRANCH   1  13
BRANCH   6  24
HETATM   24  O   UNK N   1     157.233 147.465 156.185  0.00  0.00    -0.389 OA
HETATM   25  H   UNK N   1     157.779 147.661 156.962  0.00  0.00     0.210 HD
ENDBRANCH   6  24
TORSDOF 4
ENDMDL
MODEL 4
REMARK VINA RESULT:      -5.7      2.380      8.051
REMARK  4 active torsions:
REMARK  status: ('A' for Active; 'I' for Inactive)
REMARK       I    between atoms: C_2  and  N_4 
REMARK    1  A    between atoms: N_4  and  C_5 
REMARK    2  A    between atoms: C_5  and  C_6 
REMARK    3  A    between atoms: C_9  and  C_10 
REMARK       I    between atoms: C_10  and  N_12 
REMARK    4  A    between atoms: C_15  and  O_16 
ROOT
HETATM    1  C   UNK N   1     169.358 151.367 152.682  0.00  0.00     0.260 C 
HETATM    2  O   UNK N   1     168.827 151.369 151.581  0.00  0.00    -0.267 OA
HETATM    3  N   UNK N   1     170.363 150.468 152.945  0.00  0.00    -0.347 N 
HETATM    4  C   UNK N   1     170.791 149.531 151.911  0.00  0.00     0.129 C 
HETATM    5  C   UNK N   1     171.226 148.169 152.498  0.00  0.00     0.058 C 
HETATM    6  C   UNK N   1     170.562 147.914 153.849  0.00  0.00     0.064 C 
HETATM    7  C   UNK N   1     171.004 146.570 154.437  0.00  0.00     0.038 C 
HETATM    8  C   UNK N   1     170.819 146.471 155.968  0.00  0.00     0.003 C 
HETATM    9  C   UNK N   1     169.834 147.504 156.531  0.00  0.00     0.001 C 
HETATM   10  C   UNK N   1     170.203 148.947 156.147  0.00  0.00     0.009 C 
HETATM   11  C   UNK N   1     170.985 149.019 154.830  0.00  0.00     0.038 C 
HETATM   12  C   UNK N   1     171.025 150.427 154.231  0.00  0.00     0.133 C 
ENDROOT
BRANCH   1  13
HETATM   13  C   UNK N   1     168.894 152.371 153.687  0.00  0.00     0.073 A 
HETATM   14  C   UNK N   1     168.034 152.172 154.779  0.00  0.00     0.026 A 
HETATM   15  C   UNK N   1     167.817 153.347 155.554  0.00  0.00     0.018 A 
HETATM   16  C   UNK N   1     168.509 154.453 155.063  0.00  0.00     0.001 A 
HETATM   17  S   UNK N   1     169.351 153.967 153.724  0.00  0.00    -0.088 SA
BRANCH  16  18
HETATM   18  C   UNK N   1     168.531 155.813 155.668  0.00  0.00     0.168 C 
BRANCH  18  19
HETATM   19  N   UNK N   1     167.349 156.545 155.286  0.00  0.00    -0.357 N 
HETATM   20  C   UNK N   1     167.322 157.326 154.181  0.00  0.00     0.213 C 
HETATM   21  C   UNK N   1     166.058 158.015 153.797  0.00  0.00     0.117 C 
HETATM   22  O   UNK N   1     168.321 157.470 153.492  0.00  0.00    -0.274 OA
HETATM   23  H   UNK N   1     166.541 156.475 155.844  0.00  0.00     0.162 HD
ENDBRANCH  18  19
ENDBRANCH  16  18
ENDBRANCH   1  13
BRANCH   6  24
HETATM   24  O   UNK N   1     169.173 147.906 153.674  0.00  0.00    -0.389 OA
HETATM   25  H   UNK N   1     168.759 147.409 154.397  0.00  0.00     0.210 HD
ENDBRANCH   6  24
TORSDOF 4
ENDMDL
MODEL 5
REMARK VINA RESULT:      -5.7      2.611      3.426
REMARK  4 active torsions:
REMARK  status: ('A' for Active; 'I' for Inactive)
REMARK       I    between atoms: C_2  and  N_4 
REMARK    1  A    between atoms: N_4  and  C_5 
REMARK    2  A    between atoms: C_5  and  C_6 
REMARK    3  A    between atoms: C_9  and  C_10 
REMARK       I    between atoms: C_10  and  N_12 
REMARK    4  A    between atoms: C_15  and  O_16 
ROOT
HETATM    1  C   UNK N   1     166.136 156.608 153.822  0.00  0.00     0.260 C 
HETATM    2  O   UNK N   1     166.630 157.702 153.593  0.00  0.00    -0.267 OA
HETATM    3  N   UNK N   1     164.889 156.536 154.393  0.00  0.00    -0.347 N 
HETATM    4  C   UNK N   1     164.162 157.761 154.712  0.00  0.00     0.129 C 
HETATM    5  C   UNK N   1     163.297 157.615 155.984  0.00  0.00     0.058 C 
HETATM    6  C   UNK N   1     163.844 156.524 156.900  0.00  0.00     0.064 C 
HETATM    7  C   UNK N   1     162.978 156.369 158.155  0.00  0.00     0.038 C 
HETATM    8  C   UNK N   1     163.128 154.997 158.848  0.00  0.00     0.003 C 
HETATM    9  C   UNK N   1     164.408 154.250 158.450  0.00  0.00     0.001 C 
HETATM   10  C   UNK N   1     164.546 154.077 156.928  0.00  0.00     0.009 C 
HETATM   11  C   UNK N   1     163.826 155.184 156.147  0.00  0.00     0.038 C 
HETATM   12  C   UNK N   1     164.259 155.266 154.682  0.00  0.00     0.133 C 
ENDROOT
BRANCH   1  13
HETATM   13  C   UNK N   1     166.918 155.392 153.445  0.00  0.00     0.073 A 
HETATM   14  C   UNK N   1     167.154 154.874 152.161  0.00  0.00     0.026 A 
HETATM   15  C   UNK N   1     167.966 153.704 152.159  0.00  0.00     0.018 A 
HETATM   16  C   UNK N   1     168.358 153.317 153.440  0.00  0.00     0.001 A 
HETATM   17  S   UNK N   1     167.715 154.400 154.513  0.00  0.00    -0.088 SA
BRANCH  16  18
HETATM   18  C   UNK N   1     169.243 152.168 153.775  0.00  0.00     0.168 C 
BRANCH  18  19
HETATM   19  N   UNK N   1     168.470 150.955 153.862  0.00  0.00    -0.357 N 
HETATM   20  C   UNK N   1     168.141 150.404 155.053  0.00  0.00     0.213 C 
HETATM   21  C   UNK N   1     167.290 149.181 155.089  0.00  0.00     0.117 C 
HETATM   22  O   UNK N   1     168.529 150.900 156.100  0.00  0.00    -0.274 OA
HETATM   23  H   UNK N   1     168.175 150.514 153.031  0.00  0.00     0.162 HD
ENDBRANCH  18  19
ENDBRANCH  16  18
ENDBRANCH   1  13
BRANCH   6  24
HETATM   24  O   UNK N   1     165.147 156.865 157.280  0.00  0.00    -0.389 OA
HETATM   25  H   UNK N   1     165.134 157.258 158.166  0.00  0.00     0.210 HD
ENDBRANCH   6  24
TORSDOF 4
ENDMDL
MODEL 6
REMARK VINA RESULT:      -5.7      4.396      9.038
REMARK  4 active torsions:
REMARK  status: ('A' for Active; 'I' for Inactive)
REMARK       I    between atoms: C_2  and  N_4 
REMARK    1  A    between atoms: N_4  and  C_5 
REMARK    2  A    between atoms: C_5  and  C_6 
REMARK    3  A    between atoms: C_9  and  C_10 
REMARK       I    between atoms: C_10  and  N_12 
REMARK    4  A    between atoms: C_15  and  O_16 
ROOT
HETATM    1  C   UNK N   1     168.185 156.830 158.726  0.00  0.00     0.260 C 
HETATM    2  O   UNK N   1     168.973 156.370 159.539  0.00  0.00    -0.267 OA
HETATM    3  N   UNK N   1     167.618 155.999 157.790  0.00  0.00    -0.347 N 
HETATM    4  C   UNK N   1     167.953 154.579 157.778  0.00  0.00     0.129 C 
HETATM    5  C   UNK N   1     167.970 153.992 156.350  0.00  0.00     0.058 C 
HETATM    6  C   UNK N   1     168.236 155.078 155.311  0.00  0.00     0.064 C 
HETATM    7  C   UNK N   1     168.240 154.499 153.892  0.00  0.00     0.038 C 
HETATM    8  C   UNK N   1     167.976 155.550 152.791  0.00  0.00     0.003 C 
HETATM    9  C   UNK N   1     168.221 156.992 153.254  0.00  0.00     0.001 C 
HETATM   10  C   UNK N   1     167.420 157.354 154.517  0.00  0.00     0.009 C 
HETATM   11  C   UNK N   1     167.118 156.129 155.388  0.00  0.00     0.038 C 
HETATM   12  C   UNK N   1     166.678 156.494 156.808  0.00  0.00     0.133 C 
ENDROOT
BRANCH   1  13
HETATM   13  C   UNK N   1     167.861 158.286 158.809  0.00  0.00     0.073 A 
HETATM   14  C   UNK N   1     168.654 159.376 158.414  0.00  0.00     0.026 A 
HETATM   15  C   UNK N   1     168.026 160.639 158.613  0.00  0.00     0.018 A 
HETATM   16  C   UNK N   1     166.749 160.526 159.161  0.00  0.00     0.001 A 
HETATM   17  S   UNK N   1     166.433 158.917 159.376  0.00  0.00    -0.088 SA
BRANCH  16  18
HETATM   18  C   UNK N   1     165.816 161.650 159.447  0.00  0.00     0.168 C 
BRANCH  18  19
HETATM   19  N   UNK N   1     165.702 162.507 158.294  0.00  0.00    -0.357 N 
HETATM   20  C   UNK N   1     164.682 162.384 157.413  0.00  0.00     0.213 C 
HETATM   21  C   UNK N   1     164.577 163.334 156.270  0.00  0.00     0.117 C 
HETATM   22  O   UNK N   1     163.843 161.506 157.547  0.00  0.00    -0.274 OA
HETATM   23  H   UNK N   1     166.385 163.201 158.143  0.00  0.00     0.162 HD
ENDBRANCH  18  19
ENDBRANCH  16  18
ENDBRANCH   1  13
BRANCH   6  24
HETATM   24  O   UNK N   1     169.484 155.657 155.574  0.00  0.00    -0.389 OA
HETATM   25  H   UNK N   1     169.605 155.745 156.532  0.00  0.00     0.210 HD
ENDBRANCH   6  24
TORSDOF 4
ENDMDL
MODEL 7
REMARK VINA RESULT:      -5.6      8.797     11.612
REMARK  4 active torsions:
REMARK  status: ('A' for Active; 'I' for Inactive)
REMARK       I    between atoms: C_2  and  N_4 
REMARK    1  A    between atoms: N_4  and  C_5 
REMARK    2  A    between atoms: C_5  and  C_6 
REMARK    3  A    between atoms: C_9  and  C_10 
REMARK       I    between atoms: C_10  and  N_12 
REMARK    4  A    between atoms: C_15  and  O_16 
ROOT
HETATM    1  C   UNK N   1     157.468 160.042 156.952  0.00  0.00     0.260 C 
HETATM    2  O   UNK N   1     157.269 160.850 157.848  0.00  0.00    -0.267 OA
HETATM    3  N   UNK N   1     156.510 159.856 155.986  0.00  0.00    -0.347 N 
HETATM    4  C   UNK N   1     155.270 160.626 156.031  0.00  0.00     0.129 C 
HETATM    5  C   UNK N   1     154.060 159.820 155.508  0.00  0.00     0.058 C 
HETATM    6  C   UNK N   1     154.297 158.318 155.648  0.00  0.00     0.064 C 
HETATM    7  C   UNK N   1     153.102 157.519 155.116  0.00  0.00     0.038 C 
HETATM    8  C   UNK N   1     153.450 156.063 154.734  0.00  0.00     0.003 C 
HETATM    9  C   UNK N   1     154.752 155.560 155.371  0.00  0.00     0.001 C 
HETATM   10  C   UNK N   1     155.952 156.474 155.069  0.00  0.00     0.009 C 
HETATM   11  C   UNK N   1     155.531 157.928 154.820  0.00  0.00     0.038 C 
HETATM   12  C   UNK N   1     156.697 158.914 154.904  0.00  0.00     0.133 C 
ENDROOT
BRANCH   1  13
HETATM   13  C   UNK N   1     158.769 159.307 156.945  0.00  0.00     0.073 A 
HETATM   14  C   UNK N   1     159.975 159.681 156.330  0.00  0.00     0.026 A 
HETATM   15  C   UNK N   1     161.034 158.754 156.543  0.00  0.00     0.018 A 
HETATM   16  C   UNK N   1     160.649 157.663 157.322  0.00  0.00     0.001 A 
HETATM   17  S   UNK N   1     159.057 157.867 157.722  0.00  0.00    -0.088 SA
BRANCH  16  18
HETATM   18  C   UNK N   1     161.528 156.546 157.762  0.00  0.00     0.168 C 
BRANCH  18  19
HETATM   19  N   UNK N   1     161.420 155.439 156.846  0.00  0.00    -0.357 N 
HETATM   20  C   UNK N   1     162.411 155.136 155.975  0.00  0.00     0.213 C 
HETATM   21  C   UNK N   1     162.275 153.945 155.091  0.00  0.00     0.117 C 
HETATM   22  O   UNK N   1     163.417 155.825 155.909  0.00  0.00    -0.274 OA
HETATM   23  H   UNK N   1     160.603 154.888 156.854  0.00  0.00     0.162 HD
ENDBRANCH  18  19
ENDBRANCH  16  18
ENDBRANCH   1  13
BRANCH   6  24
HETATM   24  O   UNK N   1     154.487 158.016 157.001  0.00  0.00    -0.389 OA
HETATM   25  H   UNK N   1     154.827 157.111 157.086  0.00  0.00     0.210 HD
ENDBRANCH   6  24
TORSDOF 4
ENDMDL
MODEL 8
REMARK VINA RESULT:      -5.6      2.712      7.451
REMARK  4 active torsions:
REMARK  status: ('A' for Active; 'I' for Inactive)
REMARK       I    between atoms: C_2  and  N_4 
REMARK    1  A    between atoms: N_4  and  C_5 
REMARK    2  A    between atoms: C_5  and  C_6 
REMARK    3  A    between atoms: C_9  and  C_10 
REMARK       I    between atoms: C_10  and  N_12 
REMARK    4  A    between atoms: C_15  and  O_16 
ROOT
HETATM    1  C   UNK N   1     168.504 151.153 150.163  0.00  0.00     0.260 C 
HETATM    2  O   UNK N   1     168.166 150.597 149.129  0.00  0.00    -0.267 OA
HETATM    3  N   UNK N   1     169.379 150.522 151.014  0.00  0.00    -0.347 N 
HETATM    4  C   UNK N   1     169.902 149.202 150.674  0.00  0.00     0.129 C 
HETATM    5  C   UNK N   1     170.127 148.322 151.923  0.00  0.00     0.058 C 
HETATM    6  C   UNK N   1     169.230 148.761 153.076  0.00  0.00     0.064 C 
HETATM    7  C   UNK N   1     169.463 147.896 154.320  0.00  0.00     0.038 C 
HETATM    8  C   UNK N   1     169.017 148.569 155.637  0.00  0.00     0.003 C 
HETATM    9  C   UNK N   1     168.033 149.728 155.428  0.00  0.00     0.001 C 
HETATM   10  C   UNK N   1     168.569 150.795 154.458  0.00  0.00     0.009 C 
HETATM   11  C   UNK N   1     169.564 150.215 153.444  0.00  0.00     0.038 C 
HETATM   12  C   UNK N   1     169.812 151.138 152.249  0.00  0.00     0.133 C 
ENDROOT
BRANCH   1  13
HETATM   13  C   UNK N   1     167.956 152.515 150.440  0.00  0.00     0.073 A 
HETATM   14  C   UNK N   1     167.201 153.337 149.587  0.00  0.00     0.026 A 
HETATM   15  C   UNK N   1     166.818 154.574 150.180  0.00  0.00     0.018 A 
HETATM   16  C   UNK N   1     167.275 154.708 151.491  0.00  0.00     0.001 A 
HETATM   17  S   UNK N   1     168.114 153.335 151.875  0.00  0.00    -0.088 SA
BRANCH  16  18
HETATM   18  C   UNK N   1     167.008 155.857 152.399  0.00  0.00     0.168 C 
BRANCH  18  19
HETATM   19  N   UNK N   1     167.581 155.607 153.697  0.00  0.00    -0.357 N 
HETATM   20  C   UNK N   1     168.803 156.079 154.039  0.00  0.00     0.213 C 
HETATM   21  C   UNK N   1     169.325 155.844 155.414  0.00  0.00     0.117 C 
HETATM   22  O   UNK N   1     169.481 156.699 153.233  0.00  0.00    -0.274 OA
HETATM   23  H   UNK N   1     167.070 155.079 154.353  0.00  0.00     0.162 HD
ENDBRANCH  18  19
ENDBRANCH  16  18
ENDBRANCH   1  13
BRANCH   6  24
HETATM   24  O   UNK N   1     167.893 148.643 152.678  0.00  0.00    -0.389 OA
HETATM   25  H   UNK N   1     167.369 149.347 153.089  0.00  0.00     0.210 HD
ENDBRANCH   6  24
TORSDOF 4
ENDMDL
MODEL 9
REMARK VINA RESULT:      -5.5      3.695      6.132
REMARK  4 active torsions:
REMARK  status: ('A' for Active; 'I' for Inactive)
REMARK       I    between atoms: C_2  and  N_4 
REMARK    1  A    between atoms: N_4  and  C_5 
REMARK    2  A    between atoms: C_5  and  C_6 
REMARK    3  A    between atoms: C_9  and  C_10 
REMARK       I    between atoms: C_10  and  N_12 
REMARK    4  A    between atoms: C_15  and  O_16 
ROOT
HETATM    1  C   UNK N   1     163.001 157.396 155.614  0.00  0.00     0.260 C 
HETATM    2  O   UNK N   1     162.449 158.475 155.459  0.00  0.00    -0.267 OA
HETATM    3  N   UNK N   1     162.508 156.514 156.545  0.00  0.00    -0.347 N 
HETATM    4  C   UNK N   1     161.331 156.867 157.332  0.00  0.00     0.129 C 
HETATM    5  C   UNK N   1     161.387 156.288 158.763  0.00  0.00     0.058 C 
HETATM    6  C   UNK N   1     162.828 156.036 159.199  0.00  0.00     0.064 C 
HETATM    7  C   UNK N   1     162.883 155.448 160.614  0.00  0.00     0.038 C 
HETATM    8  C   UNK N   1     164.195 154.694 160.922  0.00  0.00     0.003 C 
HETATM    9  C   UNK N   1     165.345 155.058 159.974  0.00  0.00     0.001 C 
HETATM   10  C   UNK N   1     164.976 154.867 158.492  0.00  0.00     0.009 C 
HETATM   11  C   UNK N   1     163.470 155.020 158.242  0.00  0.00     0.038 C 
HETATM   12  C   UNK N   1     163.124 155.223 156.765  0.00  0.00     0.133 C 
ENDROOT
BRANCH   1  13
HETATM   13  C   UNK N   1     164.184 157.083 154.757  0.00  0.00     0.073 A 
HETATM   14  C   UNK N   1     164.220 156.351 153.559  0.00  0.00     0.026 A 
HETATM   15  C   UNK N   1     165.520 156.261 152.985  0.00  0.00     0.018 A 
HETATM   16  C   UNK N   1     166.490 156.923 153.738  0.00  0.00     0.001 A 
HETATM   17  S   UNK N   1     165.739 157.587 155.054  0.00  0.00    -0.088 SA
BRANCH  16  18
HETATM   18  C   UNK N   1     167.931 157.055 153.390  0.00  0.00     0.168 C 
BRANCH  18  19
HETATM   19  N   UNK N   1     168.489 155.761 153.086  0.00  0.00    -0.357 N 
HETATM   20  C   UNK N   1     169.147 155.034 154.019  0.00  0.00     0.213 C 
HETATM   21  C   UNK N   1     169.653 153.676 153.671  0.00  0.00     0.117 C 
HETATM   22  O   UNK N   1     169.327 155.475 155.144  0.00  0.00    -0.274 OA
HETATM   23  H   UNK N   1     168.389 155.397 152.176  0.00  0.00     0.162 HD
ENDBRANCH  18  19
ENDBRANCH  16  18
ENDBRANCH   1  13
BRANCH   6  24
HETATM   24  O   UNK N   1     163.524 157.250 159.179  0.00  0.00    -0.389 OA
HETATM   25  H   UNK N   1     163.025 157.918 159.675  0.00  0.00     0.210 HD
ENDBRANCH   6  24
TORSDOF 4
ENDMDL
