MODEL 1
REMARK VINA RESULT:      -6.8      0.000      0.000
REMARK  5 active torsions:
REMARK  status: ('A' for Active; 'I' for Inactive)
REMARK    1  A    between atoms: C_4  and  C_5 
REMARK       I    between atoms: C_5  and  N_7 
REMARK    2  A    between atoms: N_7  and  C_8 
REMARK    3  A    between atoms: C_9  and  C_8 
REMARK    4  A    between atoms: C_22  and  S_23 
REMARK    5  A    between atoms: S_23  and  N_24 
ROOT
HETATM    1  C   UNK N   1     169.116 152.675 154.059  0.00  0.00     0.275 C 
HETATM    2  O   UNK N   1     168.653 152.459 155.171  0.00  0.00    -0.265 OA
HETATM    3  N   UNK N   1     169.360 153.941 153.634  0.00  0.00    -0.355 N 
HETATM    4  H   UNK N   1     169.670 154.062 152.708  0.00  0.00     0.162 HD
ENDROOT
BRANCH   3   5
HETATM    5  C   UNK N   1     169.194 155.118 154.448  0.00  0.00     0.128 C 
BRANCH   5   6
HETATM    6  C   UNK N   1     168.698 156.340 153.682  0.00  0.00     0.017 A 
HETATM    7  C   UNK N   1     167.528 155.984 152.819  0.00  0.00     0.022 A 
HETATM    8  C   UNK N   1     167.272 156.702 154.144  0.00  0.00    -0.007 A 
HETATM    9  C   UNK N   1     166.597 158.021 153.746  0.00  0.00     0.015 C 
HETATM   10  C   UNK N   1     166.394 155.798 154.978  0.00  0.00    -0.043 A 
HETATM   11  C   UNK N   1     165.067 157.866 153.497  0.00  0.00     0.006 C 
HETATM   12  C   UNK N   1     164.584 156.402 153.381  0.00  0.00     0.039 C 
HETATM   13  C   UNK N   1     165.063 155.633 154.575  0.00  0.00    -0.051 A 
HETATM   14  C   UNK N   1     164.196 154.833 155.323  0.00  0.00     0.007 A 
HETATM   15  C   UNK N   1     164.664 154.192 156.477  0.00  0.00     0.001 A 
HETATM   16  C   UNK N   1     165.983 154.383 156.901  0.00  0.00     0.001 A 
HETATM   17  C   UNK N   1     166.844 155.197 156.160  0.00  0.00     0.008 A 
ENDBRANCH   5   6
ENDBRANCH   3   5
BRANCH   1  18
HETATM   18  C   UNK N   1     169.474 151.556 153.190  0.00  0.00     0.144 A 
HETATM   19  O   UNK N   1     170.333 150.604 153.486  0.00  0.00    -0.308 OA
HETATM   20  C   UNK N   1     170.441 149.805 152.452  0.00  0.00     0.073 A 
HETATM   21  C   UNK N   1     171.322 148.607 152.404  0.00  0.00     0.078 C 
HETATM   22  C   UNK N   1     169.625 150.264 151.439  0.00  0.00     0.106 A 
HETATM   23  C   UNK N   1     168.994 151.389 151.904  0.00  0.00     0.070 A 
BRANCH  22  24
HETATM   24  S   UNK N   1     169.410 149.593 149.800  0.00  0.00     0.241 S 
HETATM   25  O   UNK N   1     170.623 149.796 148.882  0.00  0.00    -0.206 OA
HETATM   26  O   UNK N   1     168.264 150.249 149.016  0.00  0.00    -0.206 OA
BRANCH  24  27
HETATM   27  N   UNK N   1     169.068 147.863 149.725  0.00  0.00    -0.225 NA
HETATM   28  H   UNK N   1     169.841 147.345 150.142  0.00  0.00     0.136 HD
HETATM   29  H   UNK N   1     168.929 147.572 148.757  0.00  0.00     0.136 HD
ENDBRANCH  24  27
ENDBRANCH  22  24
ENDBRANCH   1  18
TORSDOF 5
ENDMDL
MODEL 2
REMARK VINA RESULT:      -6.7      4.618      8.587
REMARK  5 active torsions:
REMARK  status: ('A' for Active; 'I' for Inactive)
REMARK    1  A    between atoms: C_4  and  C_5 
REMARK       I    between atoms: C_5  and  N_7 
REMARK    2  A    between atoms: N_7  and  C_8 
REMARK    3  A    between atoms: C_9  and  C_8 
REMARK    4  A    between atoms: C_22  and  S_23 
REMARK    5  A    between atoms: S_23  and  N_24 
ROOT
HETATM    1  C   UNK N   1     166.824 155.433 155.330  0.00  0.00     0.275 C 
HETATM    2  O   UNK N   1     166.172 155.464 154.295  0.00  0.00    -0.265 OA
HETATM    3  N   UNK N   1     167.403 154.283 155.760  0.00  0.00    -0.355 N 
HETATM    4  H   UNK N   1     167.861 154.297 156.631  0.00  0.00     0.162 HD
ENDROOT
BRANCH   3   5
HETATM    5  C   UNK N   1     167.390 153.043 155.027  0.00  0.00     0.128 C 
BRANCH   5   6
HETATM    6  C   UNK N   1     168.626 152.177 155.244  0.00  0.00     0.017 A 
HETATM    7  C   UNK N   1     168.482 150.864 154.538  0.00  0.00     0.022 A 
HETATM    8  C   UNK N   1     169.348 151.951 153.901  0.00  0.00    -0.007 A 
HETATM    9  C   UNK N   1     170.750 151.334 153.822  0.00  0.00     0.015 C 
HETATM   10  C   UNK N   1     168.746 152.264 152.550  0.00  0.00    -0.043 A 
HETATM   11  C   UNK N   1     170.936 150.412 152.580  0.00  0.00     0.006 C 
HETATM   12  C   UNK N   1     169.621 150.040 151.858  0.00  0.00     0.039 C 
HETATM   13  C   UNK N   1     168.864 151.295 151.546  0.00  0.00    -0.051 A 
HETATM   14  C   UNK N   1     168.352 151.540 150.269  0.00  0.00     0.007 A 
HETATM   15  C   UNK N   1     167.718 152.759 149.997  0.00  0.00     0.001 A 
HETATM   16  C   UNK N   1     167.630 153.743 150.988  0.00  0.00     0.001 A 
HETATM   17  C   UNK N   1     168.157 153.501 152.259  0.00  0.00     0.008 A 
ENDBRANCH   5   6
ENDBRANCH   3   5
BRANCH   1  18
HETATM   18  C   UNK N   1     167.044 156.662 156.091  0.00  0.00     0.144 A 
HETATM   19  O   UNK N   1     167.812 156.775 157.154  0.00  0.00    -0.308 OA
HETATM   20  C   UNK N   1     167.724 158.005 157.600  0.00  0.00     0.073 A 
HETATM   21  C   UNK N   1     168.450 158.519 158.793  0.00  0.00     0.078 C 
HETATM   22  C   UNK N   1     166.855 158.716 156.799  0.00  0.00     0.106 A 
HETATM   23  C   UNK N   1     166.413 157.863 155.821  0.00  0.00     0.070 A 
BRANCH  22  24
HETATM   24  S   UNK N   1     166.332 160.414 156.967  0.00  0.00     0.241 S 
HETATM   25  O   UNK N   1     165.280 160.634 158.062  0.00  0.00    -0.206 OA
HETATM   26  O   UNK N   1     165.650 160.970 155.708  0.00  0.00    -0.206 OA
BRANCH  24  27
HETATM   27  N   UNK N   1     167.614 161.573 157.326  0.00  0.00    -0.225 NA
HETATM   28  H   UNK N   1     167.253 162.521 157.227  0.00  0.00     0.136 HD
HETATM   29  H   UNK N   1     168.406 161.430 156.700  0.00  0.00     0.136 HD
ENDBRANCH  24  27
ENDBRANCH  22  24
ENDBRANCH   1  18
TORSDOF 5
ENDMDL
MODEL 3
REMARK VINA RESULT:      -6.7      3.865      8.405
REMARK  5 active torsions:
REMARK  status: ('A' for Active; 'I' for Inactive)
REMARK    1  A    between atoms: C_4  and  C_5 
REMARK       I    between atoms: C_5  and  N_7 
REMARK    2  A    between atoms: N_7  and  C_8 
REMARK    3  A    between atoms: C_9  and  C_8 
REMARK    4  A    between atoms: C_22  and  S_23 
REMARK    5  A    between atoms: S_23  and  N_24 
ROOT
HETATM    1  C   UNK N   1     168.068 155.304 153.469  0.00  0.00     0.275 C 
HETATM    2  O   UNK N   1     169.172 155.711 153.133  0.00  0.00    -0.265 OA
HETATM    3  N   UNK N   1     167.703 154.014 153.258  0.00  0.00    -0.355 N 
HETATM    4  H   UNK N   1     166.781 153.755 153.488  0.00  0.00     0.162 HD
ENDROOT
BRANCH   3   5
HETATM    5  C   UNK N   1     168.573 153.000 152.719  0.00  0.00     0.128 C 
BRANCH   5   6
HETATM    6  C   UNK N   1     169.431 152.295 153.764  0.00  0.00     0.017 A 
HETATM    7  C   UNK N   1     168.766 151.038 154.233  0.00  0.00     0.022 A 
HETATM    8  C   UNK N   1     169.905 150.933 153.218  0.00  0.00    -0.007 A 
HETATM    9  C   UNK N   1     170.981 150.101 153.927  0.00  0.00     0.015 C 
HETATM   10  C   UNK N   1     169.340 150.270 151.984  0.00  0.00    -0.043 A 
HETATM   11  C   UNK N   1     170.716 148.568 153.838  0.00  0.00     0.006 C 
HETATM   12  C   UNK N   1     169.297 148.192 153.352  0.00  0.00     0.039 C 
HETATM   13  C   UNK N   1     169.015 148.910 152.067  0.00  0.00    -0.051 A 
HETATM   14  C   UNK N   1     168.516 148.237 150.949  0.00  0.00     0.007 A 
HETATM   15  C   UNK N   1     168.339 148.928 149.743  0.00  0.00     0.001 A 
HETATM   16  C   UNK N   1     168.696 150.277 149.647  0.00  0.00     0.001 A 
HETATM   17  C   UNK N   1     169.210 150.944 150.763  0.00  0.00     0.008 A 
ENDBRANCH   5   6
ENDBRANCH   3   5
BRANCH   1  18
HETATM   18  C   UNK N   1     167.144 156.196 154.167  0.00  0.00     0.144 A 
HETATM   19  O   UNK N   1     167.452 157.376 154.663  0.00  0.00    -0.308 OA
HETATM   20  C   UNK N   1     166.391 157.863 155.262  0.00  0.00     0.073 A 
HETATM   21  C   UNK N   1     166.346 159.182 155.948  0.00  0.00     0.078 C 
HETATM   22  C   UNK N   1     165.357 156.956 155.159  0.00  0.00     0.106 A 
HETATM   23  C   UNK N   1     165.829 155.880 154.453  0.00  0.00     0.070 A 
BRANCH  22  24
HETATM   24  S   UNK N   1     163.707 157.079 155.825  0.00  0.00     0.241 S 
HETATM   25  O   UNK N   1     162.813 155.875 155.495  0.00  0.00    -0.206 OA
HETATM   26  O   UNK N   1     162.911 158.269 155.270  0.00  0.00    -0.206 OA
BRANCH  24  27
HETATM   27  N   UNK N   1     163.604 157.254 157.579  0.00  0.00    -0.225 NA
HETATM   28  H   UNK N   1     163.239 156.394 157.986  0.00  0.00     0.136 HD
HETATM   29  H   UNK N   1     163.004 158.042 157.820  0.00  0.00     0.136 HD
ENDBRANCH  24  27
ENDBRANCH  22  24
ENDBRANCH   1  18
TORSDOF 5
ENDMDL
MODEL 4
REMARK VINA RESULT:      -6.6      3.072      4.014
REMARK  5 active torsions:
REMARK  status: ('A' for Active; 'I' for Inactive)
REMARK    1  A    between atoms: C_4  and  C_5 
REMARK       I    between atoms: C_5  and  N_7 
REMARK    2  A    between atoms: N_7  and  C_8 
REMARK    3  A    between atoms: C_9  and  C_8 
REMARK    4  A    between atoms: C_22  and  S_23 
REMARK    5  A    between atoms: S_23  and  N_24 
ROOT
HETATM    1  C   UNK N   1     168.730 151.842 153.823  0.00  0.00     0.275 C 
HETATM    2  O   UNK N   1     168.966 152.087 152.647  0.00  0.00    -0.265 OA
HETATM    3  N   UNK N   1     168.112 152.752 154.619  0.00  0.00    -0.355 N 
HETATM    4  H   UNK N   1     168.005 152.530 155.572  0.00  0.00     0.162 HD
ENDROOT
BRANCH   3   5
HETATM    5  C   UNK N   1     167.605 154.020 154.161  0.00  0.00     0.128 C 
BRANCH   5   6
HETATM    6  C   UNK N   1     168.320 155.229 154.757  0.00  0.00     0.017 A 
HETATM    7  C   UNK N   1     167.779 156.500 154.178  0.00  0.00     0.022 A 
HETATM    8  C   UNK N   1     167.322 156.074 155.573  0.00  0.00    -0.007 A 
HETATM    9  C   UNK N   1     167.781 157.211 156.495  0.00  0.00     0.015 C 
HETATM   10  C   UNK N   1     165.821 155.907 155.518  0.00  0.00    -0.043 A 
HETATM   11  C   UNK N   1     166.796 158.418 156.504  0.00  0.00     0.006 C 
HETATM   12  C   UNK N   1     165.741 158.390 155.374  0.00  0.00     0.039 C 
HETATM   13  C   UNK N   1     165.042 157.064 155.392  0.00  0.00    -0.051 A 
HETATM   14  C   UNK N   1     163.649 156.973 155.365  0.00  0.00     0.007 A 
HETATM   15  C   UNK N   1     163.032 155.719 155.461  0.00  0.00     0.001 A 
HETATM   16  C   UNK N   1     163.806 154.565 155.622  0.00  0.00     0.001 A 
HETATM   17  C   UNK N   1     165.199 154.660 155.666  0.00  0.00     0.008 A 
ENDBRANCH   5   6
ENDBRANCH   3   5
BRANCH   1  18
HETATM   18  C   UNK N   1     169.057 150.528 154.373  0.00  0.00     0.144 A 
HETATM   19  O   UNK N   1     169.833 149.633 153.800  0.00  0.00    -0.308 OA
HETATM   20  C   UNK N   1     169.855 148.559 154.553  0.00  0.00     0.073 A 
HETATM   21  C   UNK N   1     170.624 147.326 154.236  0.00  0.00     0.078 C 
HETATM   22  C   UNK N   1     169.051 148.764 155.655  0.00  0.00     0.106 A 
HETATM   23  C   UNK N   1     168.535 150.029 155.552  0.00  0.00     0.070 A 
BRANCH  22  24
HETATM   24  S   UNK N   1     168.680 147.628 156.980  0.00  0.00     0.241 S 
HETATM   25  O   UNK N   1     167.935 148.271 158.158  0.00  0.00    -0.206 OA
HETATM   26  O   UNK N   1     169.931 147.031 157.641  0.00  0.00    -0.206 OA
BRANCH  24  27
HETATM   27  N   UNK N   1     167.702 146.229 156.532  0.00  0.00    -0.225 NA
HETATM   28  H   UNK N   1     167.861 145.475 157.201  0.00  0.00     0.136 HD
HETATM   29  H   UNK N   1     167.937 145.920 155.589  0.00  0.00     0.136 HD
ENDBRANCH  24  27
ENDBRANCH  22  24
ENDBRANCH   1  18
TORSDOF 5
ENDMDL
MODEL 5
REMARK VINA RESULT:      -6.6      4.111      8.671
REMARK  5 active torsions:
REMARK  status: ('A' for Active; 'I' for Inactive)
REMARK    1  A    between atoms: C_4  and  C_5 
REMARK       I    between atoms: C_5  and  N_7 
REMARK    2  A    between atoms: N_7  and  C_8 
REMARK    3  A    between atoms: C_9  and  C_8 
REMARK    4  A    between atoms: C_22  and  S_23 
REMARK    5  A    between atoms: S_23  and  N_24 
ROOT
HETATM    1  C   UNK N   1     167.717 155.365 153.359  0.00  0.00     0.275 C 
HETATM    2  O   UNK N   1     168.633 155.852 152.709  0.00  0.00    -0.265 OA
HETATM    3  N   UNK N   1     167.564 154.020 153.456  0.00  0.00    -0.355 N 
HETATM    4  H   UNK N   1     166.774 153.681 153.936  0.00  0.00     0.162 HD
ENDROOT
BRANCH   3   5
HETATM    5  C   UNK N   1     168.480 153.056 152.902  0.00  0.00     0.128 C 
BRANCH   5   6
HETATM    6  C   UNK N   1     169.360 152.365 153.939  0.00  0.00     0.017 A 
HETATM    7  C   UNK N   1     168.718 151.100 154.417  0.00  0.00     0.022 A 
HETATM    8  C   UNK N   1     169.846 151.009 153.390  0.00  0.00    -0.007 A 
HETATM    9  C   UNK N   1     170.942 150.193 154.087  0.00  0.00     0.015 C 
HETATM   10  C   UNK N   1     169.277 150.336 152.163  0.00  0.00    -0.043 A 
HETATM   11  C   UNK N   1     170.697 148.656 154.004  0.00  0.00     0.006 C 
HETATM   12  C   UNK N   1     169.279 148.260 153.534  0.00  0.00     0.039 C 
HETATM   13  C   UNK N   1     168.972 148.972 152.251  0.00  0.00    -0.051 A 
HETATM   14  C   UNK N   1     168.471 148.290 151.140  0.00  0.00     0.007 A 
HETATM   15  C   UNK N   1     168.270 148.976 149.936  0.00  0.00     0.001 A 
HETATM   16  C   UNK N   1     168.607 150.330 149.834  0.00  0.00     0.001 A 
HETATM   17  C   UNK N   1     169.124 151.006 150.942  0.00  0.00     0.008 A 
ENDBRANCH   5   6
ENDBRANCH   3   5
BRANCH   1  18
HETATM   18  C   UNK N   1     166.804 156.236 154.098  0.00  0.00     0.144 A 
HETATM   19  O   UNK N   1     165.490 156.181 154.048  0.00  0.00    -0.308 OA
HETATM   20  C   UNK N   1     165.007 157.144 154.796  0.00  0.00     0.073 A 
HETATM   21  C   UNK N   1     163.555 157.408 154.991  0.00  0.00     0.078 C 
HETATM   22  C   UNK N   1     166.051 157.859 155.344  0.00  0.00     0.106 A 
HETATM   23  C   UNK N   1     167.214 157.281 154.905  0.00  0.00     0.070 A 
BRANCH  22  24
HETATM   24  S   UNK N   1     165.976 159.294 156.402  0.00  0.00     0.241 S 
HETATM   25  O   UNK N   1     165.688 160.603 155.653  0.00  0.00    -0.206 OA
HETATM   26  O   UNK N   1     167.298 159.589 157.126  0.00  0.00    -0.206 OA
BRANCH  24  27
HETATM   27  N   UNK N   1     164.768 159.230 157.688  0.00  0.00    -0.225 NA
HETATM   28  H   UNK N   1     165.181 158.810 158.520  0.00  0.00     0.136 HD
HETATM   29  H   UNK N   1     163.958 158.690 157.384  0.00  0.00     0.136 HD
ENDBRANCH  24  27
ENDBRANCH  22  24
ENDBRANCH   1  18
TORSDOF 5
ENDMDL
MODEL 6
REMARK VINA RESULT:      -6.4      4.949      6.961
REMARK  5 active torsions:
REMARK  status: ('A' for Active; 'I' for Inactive)
REMARK    1  A    between atoms: C_4  and  C_5 
REMARK       I    between atoms: C_5  and  N_7 
REMARK    2  A    between atoms: N_7  and  C_8 
REMARK    3  A    between atoms: C_9  and  C_8 
REMARK    4  A    between atoms: C_22  and  S_23 
REMARK    5  A    between atoms: S_23  and  N_24 
ROOT
HETATM    1  C   UNK N   1     164.571 154.105 156.918  0.00  0.00     0.275 C 
HETATM    2  O   UNK N   1     164.613 153.482 157.970  0.00  0.00    -0.265 OA
HETATM    3  N   UNK N   1     163.557 154.968 156.653  0.00  0.00    -0.355 N 
HETATM    4  H   UNK N   1     163.537 155.393 155.765  0.00  0.00     0.162 HD
ENDROOT
BRANCH   3   5
HETATM    5  C   UNK N   1     162.509 155.300 157.583  0.00  0.00     0.128 C 
BRANCH   5   6
HETATM    6  C   UNK N   1     161.631 156.467 157.143  0.00  0.00     0.017 A 
HETATM    7  C   UNK N   1     160.182 156.134 157.318  0.00  0.00     0.022 A 
HETATM    8  C   UNK N   1     160.862 157.027 158.356  0.00  0.00    -0.007 A 
HETATM    9  C   UNK N   1     160.091 158.352 158.291  0.00  0.00     0.015 C 
HETATM   10  C   UNK N   1     160.749 156.325 159.689  0.00  0.00    -0.043 A 
HETATM   11  C   UNK N   1     158.776 158.328 159.125  0.00  0.00     0.006 C 
HETATM   12  C   UNK N   1     158.335 156.919 159.583  0.00  0.00     0.039 C 
HETATM   13  C   UNK N   1     159.482 156.252 160.281  0.00  0.00    -0.051 A 
HETATM   14  C   UNK N   1     159.323 155.641 161.527  0.00  0.00     0.007 A 
HETATM   15  C   UNK N   1     160.435 155.097 162.182  0.00  0.00     0.001 A 
HETATM   16  C   UNK N   1     161.707 155.199 161.610  0.00  0.00     0.001 A 
HETATM   17  C   UNK N   1     161.867 155.826 160.371  0.00  0.00     0.008 A 
ENDBRANCH   5   6
ENDBRANCH   3   5
BRANCH   1  18
HETATM   18  C   UNK N   1     165.659 153.973 155.950  0.00  0.00     0.144 A 
HETATM   19  O   UNK N   1     166.452 152.930 155.831  0.00  0.00    -0.308 OA
HETATM   20  C   UNK N   1     167.338 153.186 154.899  0.00  0.00     0.073 A 
HETATM   21  C   UNK N   1     168.410 152.245 154.478  0.00  0.00     0.078 C 
HETATM   22  C   UNK N   1     167.116 154.453 154.400  0.00  0.00     0.106 A 
HETATM   23  C   UNK N   1     166.035 154.968 155.066  0.00  0.00     0.070 A 
BRANCH  22  24
HETATM   24  S   UNK N   1     168.043 155.330 153.153  0.00  0.00     0.241 S 
HETATM   25  O   UNK N   1     169.560 155.317 153.383  0.00  0.00    -0.206 OA
HETATM   26  O   UNK N   1     167.711 156.828 153.086  0.00  0.00    -0.206 OA
BRANCH  24  27
HETATM   27  N   UNK N   1     167.828 154.752 151.498  0.00  0.00    -0.225 NA
HETATM   28  H   UNK N   1     167.930 155.532 150.850  0.00  0.00     0.136 HD
HETATM   29  H   UNK N   1     166.910 154.321 151.391  0.00  0.00     0.136 HD
ENDBRANCH  24  27
ENDBRANCH  22  24
ENDBRANCH   1  18
TORSDOF 5
ENDMDL
MODEL 7
REMARK VINA RESULT:      -6.3      8.073     10.833
REMARK  5 active torsions:
REMARK  status: ('A' for Active; 'I' for Inactive)
REMARK    1  A    between atoms: C_4  and  C_5 
REMARK       I    between atoms: C_5  and  N_7 
REMARK    2  A    between atoms: N_7  and  C_8 
REMARK    3  A    between atoms: C_9  and  C_8 
REMARK    4  A    between atoms: C_22  and  S_23 
REMARK    5  A    between atoms: S_23  and  N_24 
ROOT
HETATM    1  C   UNK N   1     160.136 156.422 157.926  0.00  0.00     0.275 C 
HETATM    2  O   UNK N   1     160.021 156.508 159.141  0.00  0.00    -0.265 OA
HETATM    3  N   UNK N   1     159.073 156.616 157.105  0.00  0.00    -0.355 N 
HETATM    4  H   UNK N   1     159.205 156.472 156.140  0.00  0.00     0.162 HD
ENDROOT
BRANCH   3   5
HETATM    5  C   UNK N   1     157.764 157.018 157.552  0.00  0.00     0.128 C 
BRANCH   5   6
HETATM    6  C   UNK N   1     157.492 158.513 157.422  0.00  0.00     0.017 A 
HETATM    7  C   UNK N   1     157.440 158.917 155.982  0.00  0.00     0.022 A 
HETATM    8  C   UNK N   1     156.126 158.738 156.742  0.00  0.00    -0.007 A 
HETATM    9  C   UNK N   1     155.458 160.117 156.693  0.00  0.00     0.015 C 
HETATM   10  C   UNK N   1     155.344 157.659 156.030  0.00  0.00    -0.043 A 
HETATM   11  C   UNK N   1     154.691 160.370 155.361  0.00  0.00     0.006 C 
HETATM   12  C   UNK N   1     155.004 159.353 154.240  0.00  0.00     0.039 C 
HETATM   13  C   UNK N   1     154.811 157.965 154.772  0.00  0.00    -0.051 A 
HETATM   14  C   UNK N   1     154.054 157.017 154.080  0.00  0.00     0.007 A 
HETATM   15  C   UNK N   1     153.832 155.755 154.647  0.00  0.00     0.001 A 
HETATM   16  C   UNK N   1     154.334 155.459 155.919  0.00  0.00     0.001 A 
HETATM   17  C   UNK N   1     155.076 156.415 156.617  0.00  0.00     0.008 A 
ENDBRANCH   5   6
ENDBRANCH   3   5
BRANCH   1  18
HETATM   18  C   UNK N   1     161.449 156.171 157.334  0.00  0.00     0.144 A 
HETATM   19  O   UNK N   1     161.818 156.517 156.119  0.00  0.00    -0.308 OA
HETATM   20  C   UNK N   1     163.039 156.083 155.916  0.00  0.00     0.073 A 
HETATM   21  C   UNK N   1     163.801 156.280 154.654  0.00  0.00     0.078 C 
HETATM   22  C   UNK N   1     163.476 155.419 157.043  0.00  0.00     0.106 A 
HETATM   23  C   UNK N   1     162.462 155.472 157.965  0.00  0.00     0.070 A 
BRANCH  22  24
HETATM   24  S   UNK N   1     165.035 154.593 157.307  0.00  0.00     0.241 S 
HETATM   25  O   UNK N   1     165.222 154.059 158.734  0.00  0.00    -0.206 OA
HETATM   26  O   UNK N   1     166.252 155.511 157.114  0.00  0.00    -0.206 OA
BRANCH  24  27
HETATM   27  N   UNK N   1     165.351 153.209 156.258  0.00  0.00    -0.225 NA
HETATM   28  H   UNK N   1     165.178 152.346 156.773  0.00  0.00     0.136 HD
HETATM   29  H   UNK N   1     166.314 153.233 155.922  0.00  0.00     0.136 HD
ENDBRANCH  24  27
ENDBRANCH  22  24
ENDBRANCH   1  18
TORSDOF 5
ENDMDL
MODEL 8
REMARK VINA RESULT:      -6.3      4.267      8.510
REMARK  5 active torsions:
REMARK  status: ('A' for Active; 'I' for Inactive)
REMARK    1  A    between atoms: C_4  and  C_5 
REMARK       I    between atoms: C_5  and  N_7 
REMARK    2  A    between atoms: N_7  and  C_8 
REMARK    3  A    between atoms: C_9  and  C_8 
REMARK    4  A    between atoms: C_22  and  S_23 
REMARK    5  A    between atoms: S_23  and  N_24 
ROOT
HETATM    1  C   UNK N   1     166.641 153.766 155.392  0.00  0.00     0.275 C 
HETATM    2  O   UNK N   1     165.994 152.930 156.008  0.00  0.00    -0.265 OA
HETATM    3  N   UNK N   1     167.848 153.461 154.851  0.00  0.00    -0.355 N 
HETATM    4  H   UNK N   1     168.357 154.187 154.423  0.00  0.00     0.162 HD
ENDROOT
BRANCH   3   5
HETATM    5  C   UNK N   1     168.435 152.145 154.865  0.00  0.00     0.128 C 
BRANCH   5   6
HETATM    6  C   UNK N   1     169.189 151.785 153.589  0.00  0.00     0.017 A 
HETATM    7  C   UNK N   1     170.483 151.105 153.914  0.00  0.00     0.022 A 
HETATM    8  C   UNK N   1     169.297 150.253 153.461  0.00  0.00    -0.007 A 
HETATM    9  C   UNK N   1     169.777 149.574 152.172  0.00  0.00     0.015 C 
HETATM   10  C   UNK N   1     168.994 149.283 154.580  0.00  0.00    -0.043 A 
HETATM   11  C   UNK N   1     170.633 148.300 152.442  0.00  0.00     0.006 C 
HETATM   12  C   UNK N   1     171.100 148.143 153.907  0.00  0.00     0.039 C 
HETATM   13  C   UNK N   1     169.911 148.251 154.813  0.00  0.00    -0.051 A 
HETATM   14  C   UNK N   1     169.668 147.308 155.815  0.00  0.00     0.007 A 
HETATM   15  C   UNK N   1     168.505 147.400 156.590  0.00  0.00     0.001 A 
HETATM   16  C   UNK N   1     167.571 148.410 156.337  0.00  0.00     0.001 A 
HETATM   17  C   UNK N   1     167.807 149.342 155.323  0.00  0.00     0.008 A 
ENDBRANCH   5   6
ENDBRANCH   3   5
BRANCH   1  18
HETATM   18  C   UNK N   1     166.086 155.101 155.174  0.00  0.00     0.144 A 
HETATM   19  O   UNK N   1     165.564 155.535 154.046  0.00  0.00    -0.308 OA
HETATM   20  C   UNK N   1     165.220 156.791 154.205  0.00  0.00     0.073 A 
HETATM   21  C   UNK N   1     164.595 157.630 153.147  0.00  0.00     0.078 C 
HETATM   22  C   UNK N   1     165.543 157.190 155.485  0.00  0.00     0.106 A 
HETATM   23  C   UNK N   1     166.098 156.109 156.120  0.00  0.00     0.070 A 
BRANCH  22  24
HETATM   24  S   UNK N   1     165.338 158.799 156.228  0.00  0.00     0.241 S 
HETATM   25  O   UNK N   1     163.874 159.183 156.485  0.00  0.00    -0.206 OA
HETATM   26  O   UNK N   1     165.852 159.948 155.347  0.00  0.00    -0.206 OA
BRANCH  24  27
HETATM   27  N   UNK N   1     166.149 159.031 157.779  0.00  0.00    -0.225 NA
HETATM   28  H   UNK N   1     166.181 158.144 158.281  0.00  0.00     0.136 HD
HETATM   29  H   UNK N   1     165.658 159.732 158.333  0.00  0.00     0.136 HD
ENDBRANCH  24  27
ENDBRANCH  22  24
ENDBRANCH   1  18
TORSDOF 5
ENDMDL
MODEL 9
REMARK VINA RESULT:      -6.3      8.645     11.488
REMARK  5 active torsions:
REMARK  status: ('A' for Active; 'I' for Inactive)
REMARK    1  A    between atoms: C_4  and  C_5 
REMARK       I    between atoms: C_5  and  N_7 
REMARK    2  A    between atoms: N_7  and  C_8 
REMARK    3  A    between atoms: C_9  and  C_8 
REMARK    4  A    between atoms: C_22  and  S_23 
REMARK    5  A    between atoms: S_23  and  N_24 
ROOT
HETATM    1  C   UNK N   1     159.583 157.502 157.854  0.00  0.00     0.275 C 
HETATM    2  O   UNK N   1     159.434 157.981 158.970  0.00  0.00    -0.265 OA
HETATM    3  N   UNK N   1     158.609 157.597 156.914  0.00  0.00    -0.355 N 
HETATM    4  H   UNK N   1     158.754 157.138 156.055  0.00  0.00     0.162 HD
ENDROOT
BRANCH   3   5
HETATM    5  C   UNK N   1     157.377 158.323 157.090  0.00  0.00     0.128 C 
BRANCH   5   6
HETATM    6  C   UNK N   1     156.710 158.746 155.785  0.00  0.00     0.017 A 
HETATM    7  C   UNK N   1     156.476 157.558 154.903  0.00  0.00     0.022 A 
HETATM    8  C   UNK N   1     155.300 158.129 155.696  0.00  0.00    -0.007 A 
HETATM    9  C   UNK N   1     154.287 158.563 154.629  0.00  0.00     0.015 C 
HETATM   10  C   UNK N   1     154.796 157.027 156.599  0.00  0.00    -0.043 A 
HETATM   11  C   UNK N   1     153.409 157.383 154.113  0.00  0.00     0.006 C 
HETATM   12  C   UNK N   1     153.922 155.982 154.517  0.00  0.00     0.039 C 
HETATM   13  C   UNK N   1     154.134 155.948 156.000  0.00  0.00    -0.051 A 
HETATM   14  C   UNK N   1     153.621 154.914 156.787  0.00  0.00     0.007 A 
HETATM   15  C   UNK N   1     153.773 154.959 158.179  0.00  0.00     0.001 A 
HETATM   16  C   UNK N   1     154.403 156.052 158.782  0.00  0.00     0.001 A 
HETATM   17  C   UNK N   1     154.901 157.093 157.994  0.00  0.00     0.008 A 
ENDBRANCH   5   6
ENDBRANCH   3   5
BRANCH   1  18
HETATM   18  C   UNK N   1     160.852 156.871 157.497  0.00  0.00     0.144 A 
HETATM   19  O   UNK N   1     161.446 156.962 156.325  0.00  0.00    -0.308 OA
HETATM   20  C   UNK N   1     162.532 156.227 156.353  0.00  0.00     0.073 A 
HETATM   21  C   UNK N   1     163.472 156.074 155.210  0.00  0.00     0.078 C 
HETATM   22  C   UNK N   1     162.640 155.625 157.590  0.00  0.00     0.106 A 
HETATM   23  C   UNK N   1     161.566 156.036 158.336  0.00  0.00     0.070 A 
BRANCH  22  24
HETATM   24  S   UNK N   1     163.892 154.491 158.164  0.00  0.00     0.241 S 
HETATM   25  O   UNK N   1     163.883 154.274 159.683  0.00  0.00    -0.206 OA
HETATM   26  O   UNK N   1     165.324 154.970 157.886  0.00  0.00    -0.206 OA
BRANCH  24  27
HETATM   27  N   UNK N   1     163.823 152.868 157.471  0.00  0.00    -0.225 NA
HETATM   28  H   UNK N   1     164.537 152.777 156.748  0.00  0.00     0.136 HD
HETATM   29  H   UNK N   1     162.899 152.690 157.080  0.00  0.00     0.136 HD
ENDBRANCH  24  27
ENDBRANCH  22  24
ENDBRANCH   1  18
TORSDOF 5
ENDMDL
