MODEL 1
REMARK VINA RESULT:      -6.2      0.000      0.000
REMARK  4 active torsions:
REMARK  status: ('A' for Active; 'I' for Inactive)
REMARK    1  A    between atoms: C_3  and  C_2 
REMARK       I    between atoms: N_11  and  C_12 
REMARK    2  A    between atoms: C_12  and  C_14 
REMARK    3  A    between atoms: C_14  and  C_15 
REMARK    4  A    between atoms: C_18  and  N_19 
ROOT
HETATM    1  C   UNK N   1     163.547 154.971 156.985  0.00  0.00     0.137 C 
HETATM    2  C   UNK N   1     162.594 156.137 156.940  0.00  0.00     0.034 A 
HETATM    3  C   UNK N   1     161.331 156.211 157.487  0.00  0.00     0.028 A 
HETATM    4  C   UNK N   1     160.861 157.485 157.181  0.00  0.00     0.019 A 
HETATM    5  C   UNK N   1     161.858 158.119 156.450  0.00  0.00     0.091 A 
HETATM    6  N   UNK N   1     162.896 157.281 156.317  0.00  0.00    -0.357 N 
HETATM    7  C   UNK N   1     164.140 157.519 155.604  0.00  0.00     0.148 C 
HETATM    8  C   UNK N   1     165.247 156.730 156.297  0.00  0.00     0.147 C 
HETATM    9  N   UNK N   1     164.870 155.328 156.455  0.00  0.00    -0.340 N 
HETATM   10  C   UNK N   1     165.776 154.349 156.160  0.00  0.00     0.224 C 
HETATM   11  O   UNK N   1     165.471 153.170 156.276  0.00  0.00    -0.273 OA
ENDROOT
BRANCH  10  12
HETATM   12  C   UNK N   1     167.171 154.690 155.713  0.00  0.00     0.141 C 
BRANCH  12  13
HETATM   13  C   UNK N   1     167.326 154.484 154.249  0.00  0.00    -0.049 A 
HETATM   14  C   UNK N   1     166.737 155.384 153.356  0.00  0.00     0.010 A 
HETATM   15  C   UNK N   1     166.872 155.192 151.980  0.00  0.00     0.032 A 
HETATM   16  C   UNK N   1     167.611 154.108 151.487  0.00  0.00     0.056 A 
HETATM   17  C   UNK N   1     168.214 153.217 152.388  0.00  0.00     0.032 A 
HETATM   18  C   UNK N   1     168.067 153.402 153.765  0.00  0.00     0.010 A 
BRANCH  16  19
HETATM   19  N   UNK N   1     167.747 153.906 150.073  0.00  0.00    -0.268 N 
HETATM   20  C   UNK N   1     167.885 152.716 149.460  0.00  0.00     0.118 A 
HETATM   21  C   UNK N   1     167.993 152.951 148.101  0.00  0.00     0.038 A 
HETATM   22  C   UNK N   1     167.899 154.327 147.961  0.00  0.00     0.109 A 
HETATM   23  N   UNK N   1     167.757 154.875 149.183  0.00  0.00    -0.305 N 
ATOM     24  HN  UNK N   1     167.673 155.871 149.384  1.00  0.00     0.186 HD
ENDBRANCH  16  19
ENDBRANCH  12  13
ENDBRANCH  10  12
BRANCH   1  25
HETATM   25  C   UNK N   1     163.674 154.384 158.397  0.00  0.00     0.027 C 
HETATM   26  C   UNK N   1     164.280 155.372 159.380  0.00  0.00     0.007 C 
ENDBRANCH   1  25
TORSDOF 4
ENDMDL
MODEL 2
REMARK VINA RESULT:      -6.1      2.303      3.109
REMARK  4 active torsions:
REMARK  status: ('A' for Active; 'I' for Inactive)
REMARK    1  A    between atoms: C_3  and  C_2 
REMARK       I    between atoms: N_11  and  C_12 
REMARK    2  A    between atoms: C_12  and  C_14 
REMARK    3  A    between atoms: C_14  and  C_15 
REMARK    4  A    between atoms: C_18  and  N_19 
ROOT
HETATM    1  C   UNK N   1     162.740 156.018 155.552  0.00  0.00     0.137 C 
HETATM    2  C   UNK N   1     162.322 156.553 156.896  0.00  0.00     0.034 A 
HETATM    3  C   UNK N   1     161.194 156.223 157.617  0.00  0.00     0.028 A 
HETATM    4  C   UNK N   1     161.259 156.976 158.786  0.00  0.00     0.019 A 
HETATM    5  C   UNK N   1     162.418 157.739 158.711  0.00  0.00     0.091 A 
HETATM    6  N   UNK N   1     163.042 157.465 157.557  0.00  0.00    -0.357 N 
HETATM    7  C   UNK N   1     164.273 158.052 157.054  0.00  0.00     0.148 C 
HETATM    8  C   UNK N   1     164.987 157.009 156.200  0.00  0.00     0.147 C 
HETATM    9  N   UNK N   1     164.092 156.462 155.185  0.00  0.00    -0.340 N 
HETATM   10  C   UNK N   1     164.538 156.311 153.902  0.00  0.00     0.224 C 
HETATM   11  O   UNK N   1     163.795 155.865 153.039  0.00  0.00    -0.273 OA
ENDROOT
BRANCH  10  12
HETATM   12  C   UNK N   1     165.950 156.663 153.525  0.00  0.00     0.141 C 
BRANCH  12  13
HETATM   13  C   UNK N   1     166.779 155.440 153.367  0.00  0.00    -0.049 A 
HETATM   14  C   UNK N   1     167.141 155.008 152.087  0.00  0.00     0.010 A 
HETATM   15  C   UNK N   1     167.913 153.855 151.931  0.00  0.00     0.032 A 
HETATM   16  C   UNK N   1     168.343 153.136 153.054  0.00  0.00     0.056 A 
HETATM   17  C   UNK N   1     167.991 153.582 154.337  0.00  0.00     0.032 A 
HETATM   18  C   UNK N   1     167.206 154.728 154.492  0.00  0.00     0.010 A 
BRANCH  16  19
HETATM   19  N   UNK N   1     169.133 151.947 152.896  0.00  0.00    -0.268 N 
HETATM   20  C   UNK N   1     170.268 151.664 153.561  0.00  0.00     0.118 A 
HETATM   21  C   UNK N   1     170.722 150.436 153.117  0.00  0.00     0.038 A 
HETATM   22  C   UNK N   1     169.792 150.022 152.176  0.00  0.00     0.109 A 
HETATM   23  N   UNK N   1     168.843 150.971 152.063  0.00  0.00    -0.305 N 
ATOM     24  HN  UNK N   1     168.038 150.939 151.438  1.00  0.00     0.186 HD
ENDBRANCH  16  19
ENDBRANCH  12  13
ENDBRANCH  10  12
BRANCH   1  25
HETATM   25  C   UNK N   1     162.638 154.489 155.482  0.00  0.00     0.027 C 
HETATM   26  C   UNK N   1     163.678 153.802 156.353  0.00  0.00     0.007 C 
ENDBRANCH   1  25
TORSDOF 4
ENDMDL
MODEL 3
REMARK VINA RESULT:      -6.0     11.655     14.270
REMARK  4 active torsions:
REMARK  status: ('A' for Active; 'I' for Inactive)
REMARK    1  A    between atoms: C_3  and  C_2 
REMARK       I    between atoms: N_11  and  C_12 
REMARK    2  A    between atoms: C_12  and  C_14 
REMARK    3  A    between atoms: C_14  and  C_15 
REMARK    4  A    between atoms: C_18  and  N_19 
ROOT
HETATM    1  C   UNK N   1     157.455 146.771 157.869  0.00  0.00     0.137 C 
HETATM    2  C   UNK N   1     157.809 146.549 156.422  0.00  0.00     0.034 A 
HETATM    3  C   UNK N   1     157.504 147.360 155.349  0.00  0.00     0.028 A 
HETATM    4  C   UNK N   1     158.047 146.729 154.233  0.00  0.00     0.019 A 
HETATM    5  C   UNK N   1     158.644 145.557 154.682  0.00  0.00     0.091 A 
HETATM    6  N   UNK N   1     158.485 145.472 156.010  0.00  0.00    -0.357 N 
HETATM    7  C   UNK N   1     158.925 144.400 156.887  0.00  0.00     0.148 C 
HETATM    8  C   UNK N   1     159.234 144.999 158.257  0.00  0.00     0.147 C 
HETATM    9  N   UNK N   1     158.109 145.790 158.747  0.00  0.00    -0.340 N 
HETATM   10  C   UNK N   1     157.704 145.656 160.045  0.00  0.00     0.224 C 
HETATM   11  O   UNK N   1     156.756 146.304 160.466  0.00  0.00    -0.273 OA
ENDROOT
BRANCH  10  12
HETATM   12  C   UNK N   1     158.422 144.733 160.990  0.00  0.00     0.141 C 
BRANCH  12  13
HETATM   13  C   UNK N   1     159.181 145.503 162.011  0.00  0.00    -0.049 A 
HETATM   14  C   UNK N   1     159.995 146.568 161.613  0.00  0.00     0.010 A 
HETATM   15  C   UNK N   1     160.717 147.289 162.565  0.00  0.00     0.032 A 
HETATM   16  C   UNK N   1     160.616 146.963 163.925  0.00  0.00     0.056 A 
HETATM   17  C   UNK N   1     159.785 145.903 164.321  0.00  0.00     0.032 A 
HETATM   18  C   UNK N   1     159.074 145.172 163.365  0.00  0.00     0.010 A 
BRANCH  16  19
HETATM   19  N   UNK N   1     161.361 147.700 164.905  0.00  0.00    -0.268 N 
HETATM   20  C   UNK N   1     160.874 148.681 165.687  0.00  0.00     0.118 A 
HETATM   21  C   UNK N   1     161.908 149.138 166.484  0.00  0.00     0.038 A 
HETATM   22  C   UNK N   1     163.006 148.368 166.133  0.00  0.00     0.109 A 
HETATM   23  N   UNK N   1     162.637 147.509 165.164  0.00  0.00    -0.305 N 
ATOM     24  HN  UNK N   1     163.243 146.827 164.708  1.00  0.00     0.186 HD
ENDBRANCH  16  19
ENDBRANCH  12  13
ENDBRANCH  10  12
BRANCH   1  25
HETATM   25  C   UNK N   1     157.773 148.200 158.328  0.00  0.00     0.027 C 
HETATM   26  C   UNK N   1     156.537 149.084 158.359  0.00  0.00     0.007 C 
ENDBRANCH   1  25
TORSDOF 4
ENDMDL
MODEL 4
REMARK VINA RESULT:      -6.0     11.447     13.930
REMARK  4 active torsions:
REMARK  status: ('A' for Active; 'I' for Inactive)
REMARK    1  A    between atoms: C_3  and  C_2 
REMARK       I    between atoms: N_11  and  C_12 
REMARK    2  A    between atoms: C_12  and  C_14 
REMARK    3  A    between atoms: C_14  and  C_15 
REMARK    4  A    between atoms: C_18  and  N_19 
ROOT
HETATM    1  C   UNK N   1     158.547 145.281 156.857  0.00  0.00     0.137 C 
HETATM    2  C   UNK N   1     158.107 146.407 155.958  0.00  0.00     0.034 A 
HETATM    3  C   UNK N   1     158.181 146.462 154.583  0.00  0.00     0.028 A 
HETATM    4  C   UNK N   1     157.650 147.698 154.225  0.00  0.00     0.019 A 
HETATM    5  C   UNK N   1     157.291 148.341 155.403  0.00  0.00     0.091 A 
HETATM    6  N   UNK N   1     157.579 147.539 156.438  0.00  0.00    -0.357 N 
HETATM    7  C   UNK N   1     157.397 147.818 157.852  0.00  0.00     0.148 C 
HETATM    8  C   UNK N   1     157.119 146.500 158.569  0.00  0.00     0.147 C 
HETATM    9  N   UNK N   1     158.140 145.506 158.251  0.00  0.00    -0.340 N 
HETATM   10  C   UNK N   1     158.674 144.744 159.251  0.00  0.00     0.224 C 
HETATM   11  O   UNK N   1     159.539 143.916 159.002  0.00  0.00    -0.273 OA
ENDROOT
BRANCH  10  12
HETATM   12  C   UNK N   1     158.201 144.885 160.671  0.00  0.00     0.141 C 
BRANCH  12  13
HETATM   13  C   UNK N   1     159.259 145.480 161.529  0.00  0.00    -0.049 A 
HETATM   14  C   UNK N   1     159.549 144.907 162.771  0.00  0.00     0.010 A 
HETATM   15  C   UNK N   1     160.536 145.467 163.585  0.00  0.00     0.032 A 
HETATM   16  C   UNK N   1     161.252 146.592 163.155  0.00  0.00     0.056 A 
HETATM   17  C   UNK N   1     160.969 147.154 161.900  0.00  0.00     0.032 A 
HETATM   18  C   UNK N   1     159.970 146.602 161.093  0.00  0.00     0.010 A 
BRANCH  16  19
HETATM   19  N   UNK N   1     162.264 147.171 163.993  0.00  0.00    -0.268 N 
HETATM   20  C   UNK N   1     162.091 148.215 164.825  0.00  0.00     0.118 A 
HETATM   21  C   UNK N   1     163.303 148.468 165.441  0.00  0.00     0.038 A 
HETATM   22  C   UNK N   1     164.176 147.518 164.933  0.00  0.00     0.109 A 
HETATM   23  N   UNK N   1     163.509 146.751 164.050  0.00  0.00    -0.305 N 
ATOM     24  HN  UNK N   1     163.903 145.976 163.515  1.00  0.00     0.186 HD
ENDBRANCH  16  19
ENDBRANCH  12  13
ENDBRANCH  10  12
BRANCH   1  25
HETATM   25  C   UNK N   1     158.044 143.919 156.363  0.00  0.00     0.027 C 
HETATM   26  C   UNK N   1     156.527 143.832 156.356  0.00  0.00     0.007 C 
ENDBRANCH   1  25
TORSDOF 4
ENDMDL
MODEL 5
REMARK VINA RESULT:      -5.8      2.479      3.640
REMARK  4 active torsions:
REMARK  status: ('A' for Active; 'I' for Inactive)
REMARK    1  A    between atoms: C_3  and  C_2 
REMARK       I    between atoms: N_11  and  C_12 
REMARK    2  A    between atoms: C_12  and  C_14 
REMARK    3  A    between atoms: C_14  and  C_15 
REMARK    4  A    between atoms: C_18  and  N_19 
ROOT
HETATM    1  C   UNK N   1     165.503 155.466 156.370  0.00  0.00     0.137 C 
HETATM    2  C   UNK N   1     165.957 155.741 157.779  0.00  0.00     0.034 A 
HETATM    3  C   UNK N   1     165.299 155.428 158.949  0.00  0.00     0.028 A 
HETATM    4  C   UNK N   1     166.120 155.882 159.978  0.00  0.00     0.019 A 
HETATM    5  C   UNK N   1     167.233 156.462 159.380  0.00  0.00     0.091 A 
HETATM    6  N   UNK N   1     167.109 156.364 158.049  0.00  0.00    -0.357 N 
HETATM    7  C   UNK N   1     168.024 156.860 157.035  0.00  0.00     0.148 C 
HETATM    8  C   UNK N   1     167.937 155.942 155.820  0.00  0.00     0.147 C 
HETATM    9  N   UNK N   1     166.552 155.776 155.389  0.00  0.00    -0.340 N 
HETATM   10  C   UNK N   1     166.246 155.853 154.059  0.00  0.00     0.224 C 
HETATM   11  O   UNK N   1     165.088 155.727 153.684  0.00  0.00    -0.273 OA
ENDROOT
BRANCH  10  12
HETATM   12  C   UNK N   1     167.317 156.067 153.027  0.00  0.00     0.141 C 
BRANCH  12  13
HETATM   13  C   UNK N   1     167.600 154.811 152.284  0.00  0.00    -0.049 A 
HETATM   14  C   UNK N   1     168.317 153.784 152.905  0.00  0.00     0.010 A 
HETATM   15  C   UNK N   1     168.592 152.606 152.209  0.00  0.00     0.032 A 
HETATM   16  C   UNK N   1     168.138 152.438 150.894  0.00  0.00     0.056 A 
HETATM   17  C   UNK N   1     167.405 153.466 150.281  0.00  0.00     0.032 A 
HETATM   18  C   UNK N   1     167.142 154.651 150.972  0.00  0.00     0.010 A 
BRANCH  16  19
HETATM   19  N   UNK N   1     168.425 151.229 150.176  0.00  0.00    -0.268 N 
HETATM   20  C   UNK N   1     169.034 151.153 148.978  0.00  0.00     0.118 A 
HETATM   21  C   UNK N   1     169.113 149.817 148.629  0.00  0.00     0.038 A 
HETATM   22  C   UNK N   1     168.533 149.129 149.684  0.00  0.00     0.109 A 
HETATM   23  N   UNK N   1     168.120 150.023 150.604  0.00  0.00    -0.305 N 
ATOM     24  HN  UNK N   1     167.649 149.802 151.482  1.00  0.00     0.186 HD
ENDBRANCH  16  19
ENDBRANCH  12  13
ENDBRANCH  10  12
BRANCH   1  25
HETATM   25  C   UNK N   1     165.010 154.024 156.193  0.00  0.00     0.027 C 
HETATM   26  C   UNK N   1     163.494 153.937 156.118  0.00  0.00     0.007 C 
ENDBRANCH   1  25
TORSDOF 4
ENDMDL
MODEL 6
REMARK VINA RESULT:      -5.8      2.041      8.538
REMARK  4 active torsions:
REMARK  status: ('A' for Active; 'I' for Inactive)
REMARK    1  A    between atoms: C_3  and  C_2 
REMARK       I    between atoms: N_11  and  C_12 
REMARK    2  A    between atoms: C_12  and  C_14 
REMARK    3  A    between atoms: C_14  and  C_15 
REMARK    4  A    between atoms: C_18  and  N_19 
ROOT
HETATM    1  C   UNK N   1     167.551 153.208 150.732  0.00  0.00     0.137 C 
HETATM    2  C   UNK N   1     168.359 151.944 150.858  0.00  0.00     0.034 A 
HETATM    3  C   UNK N   1     168.589 150.994 149.885  0.00  0.00     0.028 A 
HETATM    4  C   UNK N   1     169.390 150.026 150.485  0.00  0.00     0.019 A 
HETATM    5  C   UNK N   1     169.595 150.428 151.799  0.00  0.00     0.091 A 
HETATM    6  N   UNK N   1     168.960 151.591 151.999  0.00  0.00    -0.357 N 
HETATM    7  C   UNK N   1     168.883 152.358 153.231  0.00  0.00     0.148 C 
HETATM    8  C   UNK N   1     168.772 153.836 152.870  0.00  0.00     0.147 C 
HETATM    9  N   UNK N   1     167.685 154.062 151.921  0.00  0.00    -0.340 N 
HETATM   10  C   UNK N   1     166.827 155.107 152.113  0.00  0.00     0.224 C 
HETATM   11  O   UNK N   1     165.906 155.302 151.333  0.00  0.00    -0.273 OA
ENDROOT
BRANCH  10  12
HETATM   12  C   UNK N   1     167.006 156.055 153.267  0.00  0.00     0.141 C 
BRANCH  12  13
HETATM   13  C   UNK N   1     165.759 156.157 154.070  0.00  0.00    -0.049 A 
HETATM   14  C   UNK N   1     165.380 155.098 154.900  0.00  0.00     0.010 A 
HETATM   15  C   UNK N   1     164.206 155.184 155.650  0.00  0.00     0.032 A 
HETATM   16  C   UNK N   1     163.412 156.337 155.589  0.00  0.00     0.056 A 
HETATM   17  C   UNK N   1     163.805 157.404 154.767  0.00  0.00     0.032 A 
HETATM   18  C   UNK N   1     164.972 157.312 154.005  0.00  0.00     0.010 A 
BRANCH  16  19
HETATM   19  N   UNK N   1     162.201 156.425 156.356  0.00  0.00    -0.268 N 
HETATM   20  C   UNK N   1     161.792 157.500 157.056  0.00  0.00     0.118 A 
HETATM   21  C   UNK N   1     160.589 157.178 157.657  0.00  0.00     0.038 A 
HETATM   22  C   UNK N   1     160.320 155.877 157.262  0.00  0.00     0.109 A 
HETATM   23  N   UNK N   1     161.327 155.450 156.477  0.00  0.00    -0.305 N 
ATOM     24  HN  UNK N   1     161.401 154.526 156.049  1.00  0.00     0.186 HD
ENDBRANCH  16  19
ENDBRANCH  12  13
ENDBRANCH  10  12
BRANCH   1  25
HETATM   25  C   UNK N   1     167.904 153.995 149.463  0.00  0.00     0.027 C 
HETATM   26  C   UNK N   1     166.846 153.849 148.381  0.00  0.00     0.007 C 
ENDBRANCH   1  25
TORSDOF 4
ENDMDL
MODEL 7
REMARK VINA RESULT:      -5.7     11.808     13.180
REMARK  4 active torsions:
REMARK  status: ('A' for Active; 'I' for Inactive)
REMARK    1  A    between atoms: C_3  and  C_2 
REMARK       I    between atoms: N_11  and  C_12 
REMARK    2  A    between atoms: C_12  and  C_14 
REMARK    3  A    between atoms: C_14  and  C_15 
REMARK    4  A    between atoms: C_18  and  N_19 
ROOT
HETATM    1  C   UNK N   1     157.532 145.689 161.338  0.00  0.00     0.137 C 
HETATM    2  C   UNK N   1     158.455 145.311 162.466  0.00  0.00     0.034 A 
HETATM    3  C   UNK N   1     158.194 144.452 163.513  0.00  0.00     0.028 A 
HETATM    4  C   UNK N   1     159.354 144.432 164.283  0.00  0.00     0.019 A 
HETATM    5  C   UNK N   1     160.259 145.291 163.673  0.00  0.00     0.091 A 
HETATM    6  N   UNK N   1     159.690 145.811 162.576  0.00  0.00    -0.357 N 
HETATM    7  C   UNK N   1     160.264 146.776 161.654  0.00  0.00     0.148 C 
HETATM    8  C   UNK N   1     159.682 146.519 160.267  0.00  0.00     0.147 C 
HETATM    9  N   UNK N   1     158.223 146.482 160.312  0.00  0.00    -0.340 N 
HETATM   10  C   UNK N   1     157.502 147.144 159.358  0.00  0.00     0.224 C 
HETATM   11  O   UNK N   1     156.279 147.132 159.389  0.00  0.00    -0.273 OA
ENDROOT
BRANCH  10  12
HETATM   12  C   UNK N   1     158.186 147.878 158.238  0.00  0.00     0.141 C 
BRANCH  12  13
HETATM   13  C   UNK N   1     157.846 147.278 156.921  0.00  0.00    -0.049 A 
HETATM   14  C   UNK N   1     157.275 148.074 155.923  0.00  0.00     0.010 A 
HETATM   15  C   UNK N   1     156.946 147.515 154.688  0.00  0.00     0.032 A 
HETATM   16  C   UNK N   1     157.201 146.160 154.435  0.00  0.00     0.056 A 
HETATM   17  C   UNK N   1     157.789 145.369 155.434  0.00  0.00     0.032 A 
HETATM   18  C   UNK N   1     158.105 145.926 156.676  0.00  0.00     0.010 A 
BRANCH  16  19
HETATM   19  N   UNK N   1     156.858 145.582 153.166  0.00  0.00    -0.268 N 
HETATM   20  C   UNK N   1     157.332 144.421 152.679  0.00  0.00     0.118 A 
HETATM   21  C   UNK N   1     156.767 144.224 151.432  0.00  0.00     0.038 A 
HETATM   22  C   UNK N   1     155.939 145.318 151.230  0.00  0.00     0.109 A 
HETATM   23  N   UNK N   1     156.026 146.126 152.304  0.00  0.00    -0.305 N 
ATOM     24  HN  UNK N   1     155.532 147.011 152.427  1.00  0.00     0.186 HD
ENDBRANCH  16  19
ENDBRANCH  12  13
ENDBRANCH  10  12
BRANCH   1  25
HETATM   25  C   UNK N   1     156.860 144.463 160.707  0.00  0.00     0.027 C 
HETATM   26  C   UNK N   1     157.860 143.542 160.028  0.00  0.00     0.007 C 
ENDBRANCH   1  25
TORSDOF 4
ENDMDL
MODEL 8
REMARK VINA RESULT:      -5.7      3.095      8.430
REMARK  4 active torsions:
REMARK  status: ('A' for Active; 'I' for Inactive)
REMARK    1  A    between atoms: C_3  and  C_2 
REMARK       I    between atoms: N_11  and  C_12 
REMARK    2  A    between atoms: C_12  and  C_14 
REMARK    3  A    between atoms: C_14  and  C_15 
REMARK    4  A    between atoms: C_18  and  N_19 
ROOT
HETATM    1  C   UNK N   1     168.910 150.760 151.956  0.00  0.00     0.137 C 
HETATM    2  C   UNK N   1     169.414 149.603 152.778  0.00  0.00     0.034 A 
HETATM    3  C   UNK N   1     169.616 148.304 152.363  0.00  0.00     0.028 A 
HETATM    4  C   UNK N   1     170.090 147.621 153.480  0.00  0.00     0.019 A 
HETATM    5  C   UNK N   1     170.139 148.537 154.524  0.00  0.00     0.091 A 
HETATM    6  N   UNK N   1     169.724 149.729 154.072  0.00  0.00    -0.357 N 
HETATM    7  C   UNK N   1     169.588 150.963 154.827  0.00  0.00     0.148 C 
HETATM    8  C   UNK N   1     169.839 152.134 153.881  0.00  0.00     0.147 C 
HETATM    9  N   UNK N   1     169.002 152.030 152.689  0.00  0.00    -0.340 N 
HETATM   10  C   UNK N   1     168.350 153.138 152.225  0.00  0.00     0.224 C 
HETATM   11  O   UNK N   1     167.636 153.064 151.234  0.00  0.00    -0.273 OA
ENDROOT
BRANCH  10  12
HETATM   12  C   UNK N   1     168.509 154.472 152.899  0.00  0.00     0.141 C 
BRANCH  12  13
HETATM   13  C   UNK N   1     167.256 154.872 153.591  0.00  0.00    -0.049 A 
HETATM   14  C   UNK N   1     166.495 155.933 153.090  0.00  0.00     0.010 A 
HETATM   15  C   UNK N   1     165.322 156.319 153.740  0.00  0.00     0.032 A 
HETATM   16  C   UNK N   1     164.892 155.636 154.886  0.00  0.00     0.056 A 
HETATM   17  C   UNK N   1     165.650 154.562 155.376  0.00  0.00     0.032 A 
HETATM   18  C   UNK N   1     166.833 154.185 154.733  0.00  0.00     0.010 A 
BRANCH  16  19
HETATM   19  N   UNK N   1     163.688 156.035 155.559  0.00  0.00    -0.268 N 
HETATM   20  C   UNK N   1     163.220 157.294 155.651  0.00  0.00     0.118 A 
HETATM   21  C   UNK N   1     162.047 157.255 156.383  0.00  0.00     0.038 A 
HETATM   22  C   UNK N   1     161.856 155.918 156.696  0.00  0.00     0.109 A 
HETATM   23  N   UNK N   1     162.879 155.207 156.184  0.00  0.00    -0.305 N 
ATOM     24  HN  UNK N   1     163.005 154.198 156.267  1.00  0.00     0.186 HD
ENDBRANCH  16  19
ENDBRANCH  12  13
ENDBRANCH  10  12
BRANCH   1  25
HETATM   25  C   UNK N   1     169.628 150.865 150.605  0.00  0.00     0.027 C 
HETATM   26  C   UNK N   1     168.778 150.344 149.457  0.00  0.00     0.007 C 
ENDBRANCH   1  25
TORSDOF 4
ENDMDL
MODEL 9
REMARK VINA RESULT:      -5.6     10.854     14.752
REMARK  4 active torsions:
REMARK  status: ('A' for Active; 'I' for Inactive)
REMARK    1  A    between atoms: C_3  and  C_2 
REMARK       I    between atoms: N_11  and  C_12 
REMARK    2  A    between atoms: C_12  and  C_14 
REMARK    3  A    between atoms: C_14  and  C_15 
REMARK    4  A    between atoms: C_18  and  N_19 
ROOT
HETATM    1  C   UNK N   1     156.105 157.695 156.783  0.00  0.00     0.137 C 
HETATM    2  C   UNK N   1     155.454 157.151 155.538  0.00  0.00     0.034 A 
HETATM    3  C   UNK N   1     155.423 155.841 155.111  0.00  0.00     0.028 A 
HETATM    4  C   UNK N   1     154.705 155.849 153.919  0.00  0.00     0.019 A 
HETATM    5  C   UNK N   1     154.347 157.169 153.672  0.00  0.00     0.091 A 
HETATM    6  N   UNK N   1     154.813 157.937 154.667  0.00  0.00    -0.357 N 
HETATM    7  C   UNK N   1     154.695 159.379 154.802  0.00  0.00     0.148 C 
HETATM    8  C   UNK N   1     154.649 159.718 156.289  0.00  0.00     0.147 C 
HETATM    9  N   UNK N   1     155.771 159.110 156.999  0.00  0.00    -0.340 N 
HETATM   10  C   UNK N   1     156.473 159.848 157.909  0.00  0.00     0.224 C 
HETATM   11  O   UNK N   1     157.422 159.355 158.503  0.00  0.00    -0.273 OA
ENDROOT
BRANCH  10  12
HETATM   12  C   UNK N   1     156.086 161.266 158.222  0.00  0.00     0.141 C 
BRANCH  12  13
HETATM   13  C   UNK N   1     155.599 161.389 159.622  0.00  0.00    -0.049 A 
HETATM   14  C   UNK N   1     154.614 160.515 160.093  0.00  0.00     0.010 A 
HETATM   15  C   UNK N   1     154.147 160.630 161.402  0.00  0.00     0.032 A 
HETATM   16  C   UNK N   1     154.672 161.608 162.257  0.00  0.00     0.056 A 
HETATM   17  C   UNK N   1     155.672 162.473 161.785  0.00  0.00     0.032 A 
HETATM   18  C   UNK N   1     156.129 162.367 160.469  0.00  0.00     0.010 A 
BRANCH  16  19
HETATM   19  N   UNK N   1     154.189 161.731 163.603  0.00  0.00    -0.268 N 
HETATM   20  C   UNK N   1     153.216 160.986 164.159  0.00  0.00     0.118 A 
HETATM   21  C   UNK N   1     153.043 161.421 165.461  0.00  0.00     0.038 A 
HETATM   22  C   UNK N   1     153.967 162.441 165.630  0.00  0.00     0.109 A 
HETATM   23  N   UNK N   1     154.641 162.606 164.476  0.00  0.00    -0.305 N 
ATOM     24  HN  UNK N   1     155.376 163.293 164.306  1.00  0.00     0.186 HD
ENDBRANCH  16  19
ENDBRANCH  12  13
ENDBRANCH  10  12
BRANCH   1  25
HETATM   25  C   UNK N   1     155.759 156.865 158.025  0.00  0.00     0.027 C 
HETATM   26  C   UNK N   1     154.276 156.914 158.356  0.00  0.00     0.007 C 
ENDBRANCH   1  25
TORSDOF 4
ENDMDL
