MODEL 1
REMARK VINA RESULT:      -6.4      0.000      0.000
REMARK  3 active torsions:
REMARK  status: ('A' for Active; 'I' for Inactive)
REMARK    1  A    between atoms: C_3  and  C_2 
REMARK       I    between atoms: N_11  and  C_12 
REMARK    2  A    between atoms: C_12  and  C_14 
REMARK    3  A    between atoms: C_16  and  C_17 
ROOT
HETATM    1  C   UNK N   1     168.900 149.450 154.042  0.00  0.00     0.137 C 
HETATM    2  C   UNK N   1     169.119 149.189 152.586  0.00  0.00     0.034 A 
HETATM    3  C   UNK N   1     168.377 148.461 151.678  0.00  0.00     0.028 A 
HETATM    4  C   UNK N   1     169.013 148.636 150.450  0.00  0.00     0.019 A 
HETATM    5  C   UNK N   1     170.099 149.474 150.672  0.00  0.00     0.091 A 
HETATM    6  N   UNK N   1     170.138 149.783 151.976  0.00  0.00    -0.357 N 
HETATM    7  C   UNK N   1     171.033 150.680 152.683  0.00  0.00     0.148 C 
HETATM    8  C   UNK N   1     170.181 151.590 153.591  0.00  0.00     0.147 C 
HETATM    9  N   UNK N   1     169.045 150.913 154.245  0.00  0.00    -0.335 N 
HETATM   10  C   UNK N   1     168.170 151.670 155.002  0.00  0.00     0.272 C 
HETATM   11  O   UNK N   1     167.294 151.133 155.664  0.00  0.00    -0.266 OA
ENDROOT
BRANCH  10  12
HETATM   12  C   UNK N   1     168.226 153.160 155.033  0.00  0.00     0.118 A 
HETATM   13  C   UNK N   1     167.442 154.004 154.268  0.00  0.00     0.064 A 
HETATM   14  C   UNK N   1     167.931 155.267 154.562  0.00  0.00     0.035 A 
HETATM   15  N   UNK N   1     168.949 155.163 155.437  0.00  0.00    -0.303 N 
HETATM   16  N   UNK N   1     169.126 153.886 155.725  0.00  0.00    -0.295 N 
ATOM     17  HN  UNK N   1     169.492 155.940 155.815  1.00  0.00     0.186 HD
HETATM   18  H   UNK N   1     169.801 153.526 156.343  0.00  0.00     0.187 HD
BRANCH  14  19
HETATM   19  C   UNK N   1     167.449 156.578 154.002  0.00  0.00    -0.007 C 
HETATM   20  C   UNK N   1     167.100 157.568 155.099  0.00  0.00     0.021 C 
HETATM   21  C   UNK N   1     168.530 157.187 153.129  0.00  0.00     0.021 C 
HETATM   22  C   UNK N   1     166.213 156.337 153.157  0.00  0.00     0.021 C 
ENDBRANCH  14  19
ENDBRANCH  10  12
BRANCH   1  23
HETATM   23  C   UNK N   1     167.618 148.773 154.539  0.00  0.00     0.027 C 
HETATM   24  C   UNK N   1     167.914 147.862 155.715  0.00  0.00     0.007 C 
ENDBRANCH   1  23
TORSDOF 3
ENDMDL
MODEL 2
REMARK VINA RESULT:      -6.1      2.552      6.993
REMARK  3 active torsions:
REMARK  status: ('A' for Active; 'I' for Inactive)
REMARK    1  A    between atoms: C_3  and  C_2 
REMARK       I    between atoms: N_11  and  C_12 
REMARK    2  A    between atoms: C_12  and  C_14 
REMARK    3  A    between atoms: C_16  and  C_17 
ROOT
HETATM    1  C   UNK N   1     166.114 156.062 154.632  0.00  0.00     0.137 C 
HETATM    2  C   UNK N   1     164.824 155.430 155.049  0.00  0.00     0.034 A 
HETATM    3  C   UNK N   1     163.558 155.523 154.508  0.00  0.00     0.028 A 
HETATM    4  C   UNK N   1     162.767 154.653 155.258  0.00  0.00     0.019 A 
HETATM    5  C   UNK N   1     163.597 154.065 156.204  0.00  0.00     0.091 A 
HETATM    6  N   UNK N   1     164.832 154.563 156.055  0.00  0.00    -0.357 N 
HETATM    7  C   UNK N   1     166.057 154.212 156.750  0.00  0.00     0.148 C 
HETATM    8  C   UNK N   1     167.167 154.017 155.696  0.00  0.00     0.147 C 
HETATM    9  N   UNK N   1     167.128 154.980 154.579  0.00  0.00    -0.335 N 
HETATM   10  C   UNK N   1     168.026 154.823 153.539  0.00  0.00     0.272 C 
HETATM   11  O   UNK N   1     168.115 155.670 152.662  0.00  0.00    -0.266 OA
ENDROOT
BRANCH  10  12
HETATM   12  C   UNK N   1     168.901 153.623 153.415  0.00  0.00     0.118 A 
HETATM   13  C   UNK N   1     168.572 152.462 152.741  0.00  0.00     0.064 A 
HETATM   14  C   UNK N   1     169.639 151.615 153.000  0.00  0.00     0.035 A 
HETATM   15  N   UNK N   1     170.530 152.243 153.789  0.00  0.00    -0.303 N 
HETATM   16  N   UNK N   1     170.085 153.461 154.039  0.00  0.00    -0.295 N 
ATOM     17  HN  UNK N   1     171.404 151.845 154.136  1.00  0.00     0.186 HD
HETATM   18  H   UNK N   1     170.543 154.138 154.588  0.00  0.00     0.187 HD
BRANCH  14  19
HETATM   19  C   UNK N   1     169.812 150.202 152.515  0.00  0.00    -0.007 C 
HETATM   20  C   UNK N   1     169.001 149.217 153.339  0.00  0.00     0.021 C 
HETATM   21  C   UNK N   1     169.367 150.101 151.069  0.00  0.00     0.021 C 
HETATM   22  C   UNK N   1     171.276 149.816 152.607  0.00  0.00     0.021 C 
ENDBRANCH  14  19
ENDBRANCH  10  12
BRANCH   1  23
HETATM   23  C   UNK N   1     165.925 156.939 153.390  0.00  0.00     0.027 C 
HETATM   24  C   UNK N   1     166.025 158.409 153.751  0.00  0.00     0.007 C 
ENDBRANCH   1  23
TORSDOF 3
ENDMDL
MODEL 3
REMARK VINA RESULT:      -6.1      1.839      3.031
REMARK  3 active torsions:
REMARK  status: ('A' for Active; 'I' for Inactive)
REMARK    1  A    between atoms: C_3  and  C_2 
REMARK       I    between atoms: N_11  and  C_12 
REMARK    2  A    between atoms: C_12  and  C_14 
REMARK    3  A    between atoms: C_16  and  C_17 
ROOT
HETATM    1  C   UNK N   1     168.902 148.896 153.032  0.00  0.00     0.137 C 
HETATM    2  C   UNK N   1     169.605 148.128 154.105  0.00  0.00     0.034 A 
HETATM    3  C   UNK N   1     170.724 147.321 154.052  0.00  0.00     0.028 A 
HETATM    4  C   UNK N   1     170.970 146.937 155.370  0.00  0.00     0.019 A 
HETATM    5  C   UNK N   1     169.998 147.543 156.156  0.00  0.00     0.091 A 
HETATM    6  N   UNK N   1     169.185 148.249 155.359  0.00  0.00    -0.357 N 
HETATM    7  C   UNK N   1     168.071 149.111 155.710  0.00  0.00     0.148 C 
HETATM    8  C   UNK N   1     168.224 150.433 154.930  0.00  0.00     0.147 C 
HETATM    9  N   UNK N   1     168.708 150.276 153.545  0.00  0.00    -0.335 N 
HETATM   10  C   UNK N   1     168.966 151.412 152.802  0.00  0.00     0.272 C 
HETATM   11  O   UNK N   1     169.243 151.329 151.614  0.00  0.00    -0.266 OA
ENDROOT
BRANCH  10  12
HETATM   12  C   UNK N   1     168.948 152.777 153.399  0.00  0.00     0.118 A 
HETATM   13  C   UNK N   1     167.971 153.731 153.180  0.00  0.00     0.064 A 
HETATM   14  C   UNK N   1     168.445 154.850 153.847  0.00  0.00     0.035 A 
HETATM   15  N   UNK N   1     169.633 154.567 154.412  0.00  0.00    -0.303 N 
HETATM   16  N   UNK N   1     169.937 153.310 154.143  0.00  0.00    -0.295 N 
ATOM     17  HN  UNK N   1     170.204 155.215 154.957  1.00  0.00     0.186 HD
HETATM   18  H   UNK N   1     170.751 152.841 154.438  0.00  0.00     0.187 HD
BRANCH  14  19
HETATM   19  C   UNK N   1     167.782 156.197 153.940  0.00  0.00    -0.007 C 
HETATM   20  C   UNK N   1     167.704 156.693 155.374  0.00  0.00     0.021 C 
HETATM   21  C   UNK N   1     168.564 157.207 153.123  0.00  0.00     0.021 C 
HETATM   22  C   UNK N   1     166.373 156.102 153.386  0.00  0.00     0.021 C 
ENDBRANCH  14  19
ENDBRANCH  10  12
BRANCH   1  23
HETATM   23  C   UNK N   1     169.598 148.720 151.678  0.00  0.00     0.027 C 
HETATM   24  C   UNK N   1     168.645 148.121 150.661  0.00  0.00     0.007 C 
ENDBRANCH   1  23
TORSDOF 3
ENDMDL
MODEL 4
REMARK VINA RESULT:      -5.8      4.070      7.494
REMARK  3 active torsions:
REMARK  status: ('A' for Active; 'I' for Inactive)
REMARK    1  A    between atoms: C_3  and  C_2 
REMARK       I    between atoms: N_11  and  C_12 
REMARK    2  A    between atoms: C_12  and  C_14 
REMARK    3  A    between atoms: C_16  and  C_17 
ROOT
HETATM    1  C   UNK N   1     165.954 156.844 155.821  0.00  0.00     0.137 C 
HETATM    2  C   UNK N   1     164.520 156.501 156.070  0.00  0.00     0.034 A 
HETATM    3  C   UNK N   1     163.394 157.298 156.101  0.00  0.00     0.028 A 
HETATM    4  C   UNK N   1     162.324 156.425 156.293  0.00  0.00     0.019 A 
HETATM    5  C   UNK N   1     162.854 155.142 156.352  0.00  0.00     0.091 A 
HETATM    6  N   UNK N   1     164.184 155.225 156.222  0.00  0.00    -0.357 N 
HETATM    7  C   UNK N   1     165.170 154.163 156.145  0.00  0.00     0.148 C 
HETATM    8  C   UNK N   1     166.110 154.466 154.959  0.00  0.00     0.147 C 
HETATM    9  N   UNK N   1     166.456 155.891 154.799  0.00  0.00    -0.335 N 
HETATM   10  C   UNK N   1     167.215 156.269 153.708  0.00  0.00     0.272 C 
HETATM   11  O   UNK N   1     167.632 157.414 153.607  0.00  0.00    -0.266 OA
ENDROOT
BRANCH  10  12
HETATM   12  C   UNK N   1     167.542 155.328 152.600  0.00  0.00     0.118 A 
HETATM   13  C   UNK N   1     166.969 155.348 151.341  0.00  0.00     0.064 A 
HETATM   14  C   UNK N   1     167.504 154.232 150.717  0.00  0.00     0.035 A 
HETATM   15  N   UNK N   1     168.330 153.593 151.566  0.00  0.00    -0.303 N 
HETATM   16  N   UNK N   1     168.356 154.259 152.706  0.00  0.00    -0.295 N 
ATOM     17  HN  UNK N   1     168.850 152.739 151.363  1.00  0.00     0.186 HD
HETATM   18  H   UNK N   1     168.883 154.015 153.501  0.00  0.00     0.187 HD
BRANCH  14  19
HETATM   19  C   UNK N   1     167.223 153.755 149.318  0.00  0.00    -0.007 C 
HETATM   20  C   UNK N   1     165.734 153.720 149.019  0.00  0.00     0.021 C 
HETATM   21  C   UNK N   1     167.893 154.680 148.320  0.00  0.00     0.021 C 
HETATM   22  C   UNK N   1     167.783 152.356 149.144  0.00  0.00     0.021 C 
ENDBRANCH  14  19
ENDBRANCH  10  12
BRANCH   1  23
HETATM   23  C   UNK N   1     166.127 158.344 155.558  0.00  0.00     0.027 C 
HETATM   24  C   UNK N   1     166.701 159.039 156.778  0.00  0.00     0.007 C 
ENDBRANCH   1  23
TORSDOF 3
ENDMDL
MODEL 5
REMARK VINA RESULT:      -5.6     12.213     13.899
REMARK  3 active torsions:
REMARK  status: ('A' for Active; 'I' for Inactive)
REMARK    1  A    between atoms: C_3  and  C_2 
REMARK       I    between atoms: N_11  and  C_12 
REMARK    2  A    between atoms: C_12  and  C_14 
REMARK    3  A    between atoms: C_16  and  C_17 
ROOT
HETATM    1  C   UNK N   1     157.168 147.276 156.051  0.00  0.00     0.137 C 
HETATM    2  C   UNK N   1     155.742 147.725 155.993  0.00  0.00     0.034 A 
HETATM    3  C   UNK N   1     154.628 147.121 155.444  0.00  0.00     0.028 A 
HETATM    4  C   UNK N   1     153.558 147.956 155.762  0.00  0.00     0.019 A 
HETATM    5  C   UNK N   1     154.074 149.014 156.499  0.00  0.00     0.091 A 
HETATM    6  N   UNK N   1     155.398 148.847 156.613  0.00  0.00    -0.357 N 
HETATM    7  C   UNK N   1     156.366 149.639 157.349  0.00  0.00     0.148 C 
HETATM    8  C   UNK N   1     157.255 148.676 158.162  0.00  0.00     0.147 C 
HETATM    9  N   UNK N   1     157.611 147.428 157.460  0.00  0.00    -0.335 N 
HETATM   10  C   UNK N   1     158.325 146.464 158.145  0.00  0.00     0.272 C 
HETATM   11  O   UNK N   1     158.751 145.475 157.566  0.00  0.00    -0.266 OA
ENDROOT
BRANCH  10  12
HETATM   12  C   UNK N   1     158.590 146.557 159.609  0.00  0.00     0.118 A 
HETATM   13  C   UNK N   1     159.839 146.686 160.187  0.00  0.00     0.064 A 
HETATM   14  C   UNK N   1     159.583 146.619 161.548  0.00  0.00     0.035 A 
HETATM   15  N   UNK N   1     158.263 146.449 161.750  0.00  0.00    -0.303 N 
HETATM   16  N   UNK N   1     157.660 146.414 160.575  0.00  0.00    -0.295 N 
ATOM     17  HN  UNK N   1     157.805 146.362 162.658  1.00  0.00     0.186 HD
HETATM   18  H   UNK N   1     156.693 146.303 160.430  0.00  0.00     0.187 HD
BRANCH  14  19
HETATM   19  C   UNK N   1     160.588 146.699 162.664  0.00  0.00    -0.007 C 
HETATM   20  C   UNK N   1     160.208 147.746 163.696  0.00  0.00     0.021 C 
HETATM   21  C   UNK N   1     160.689 145.354 163.357  0.00  0.00     0.021 C 
HETATM   22  C   UNK N   1     161.946 147.059 162.090  0.00  0.00     0.021 C 
ENDBRANCH  14  19
ENDBRANCH  10  12
BRANCH   1  23
HETATM   23  C   UNK N   1     157.347 145.910 155.380  0.00  0.00     0.027 C 
HETATM   24  C   UNK N   1     158.330 146.005 154.229  0.00  0.00     0.007 C 
ENDBRANCH   1  23
TORSDOF 3
ENDMDL
MODEL 6
REMARK VINA RESULT:      -5.6      2.535      7.342
REMARK  3 active torsions:
REMARK  status: ('A' for Active; 'I' for Inactive)
REMARK    1  A    between atoms: C_3  and  C_2 
REMARK       I    between atoms: N_11  and  C_12 
REMARK    2  A    between atoms: C_12  and  C_14 
REMARK    3  A    between atoms: C_16  and  C_17 
ROOT
HETATM    1  C   UNK N   1     166.720 156.022 156.418  0.00  0.00     0.137 C 
HETATM    2  C   UNK N   1     165.311 156.380 156.064  0.00  0.00     0.034 A 
HETATM    3  C   UNK N   1     164.764 157.573 155.636  0.00  0.00     0.028 A 
HETATM    4  C   UNK N   1     163.422 157.296 155.378  0.00  0.00     0.019 A 
HETATM    5  C   UNK N   1     163.228 155.947 155.649  0.00  0.00     0.091 A 
HETATM    6  N   UNK N   1     164.388 155.425 156.068  0.00  0.00    -0.357 N 
HETATM    7  C   UNK N   1     164.714 154.051 156.399  0.00  0.00     0.148 C 
HETATM    8  C   UNK N   1     166.039 153.690 155.696  0.00  0.00     0.147 C 
HETATM    9  N   UNK N   1     167.044 154.771 155.689  0.00  0.00    -0.335 N 
HETATM   10  C   UNK N   1     168.225 154.571 154.999  0.00  0.00     0.272 C 
HETATM   11  O   UNK N   1     169.134 155.384 155.074  0.00  0.00    -0.266 OA
ENDROOT
BRANCH  10  12
HETATM   12  C   UNK N   1     168.444 153.388 154.119  0.00  0.00     0.118 A 
HETATM   13  C   UNK N   1     169.199 152.277 154.449  0.00  0.00     0.064 A 
HETATM   14  C   UNK N   1     169.196 151.519 153.289  0.00  0.00     0.035 A 
HETATM   15  N   UNK N   1     168.492 152.156 152.335  0.00  0.00    -0.303 N 
HETATM   16  N   UNK N   1     168.034 153.288 152.839  0.00  0.00    -0.295 N 
ATOM     17  HN  UNK N   1     168.338 151.822 151.384  1.00  0.00     0.186 HD
HETATM   18  H   UNK N   1     167.483 153.948 152.359  0.00  0.00     0.187 HD
BRANCH  14  19
HETATM   19  C   UNK N   1     169.875 150.194 153.072  0.00  0.00    -0.007 C 
HETATM   20  C   UNK N   1     170.643 150.158 151.762  0.00  0.00     0.021 C 
HETATM   21  C   UNK N   1     170.846 149.927 154.206  0.00  0.00     0.021 C 
HETATM   22  C   UNK N   1     168.831 149.094 153.049  0.00  0.00     0.021 C 
ENDBRANCH  14  19
ENDBRANCH  10  12
BRANCH   1  23
HETATM   23  C   UNK N   1     167.657 157.223 156.246  0.00  0.00     0.027 C 
HETATM   24  C   UNK N   1     168.080 157.769 157.596  0.00  0.00     0.007 C 
ENDBRANCH   1  23
TORSDOF 3
ENDMDL
MODEL 7
REMARK VINA RESULT:      -5.6      2.740      7.126
REMARK  3 active torsions:
REMARK  status: ('A' for Active; 'I' for Inactive)
REMARK    1  A    between atoms: C_3  and  C_2 
REMARK       I    between atoms: N_11  and  C_12 
REMARK    2  A    between atoms: C_12  and  C_14 
REMARK    3  A    between atoms: C_16  and  C_17 
ROOT
HETATM    1  C   UNK N   1     167.542 155.514 154.420  0.00  0.00     0.137 C 
HETATM    2  C   UNK N   1     166.090 155.760 154.164  0.00  0.00     0.034 A 
HETATM    3  C   UNK N   1     165.439 156.231 153.042  0.00  0.00     0.028 A 
HETATM    4  C   UNK N   1     164.080 156.174 153.347  0.00  0.00     0.019 A 
HETATM    5  C   UNK N   1     163.975 155.657 154.633  0.00  0.00     0.091 A 
HETATM    6  N   UNK N   1     165.209 155.425 155.100  0.00  0.00    -0.357 N 
HETATM    7  C   UNK N   1     165.621 154.822 156.354  0.00  0.00     0.148 C 
HETATM    8  C   UNK N   1     166.698 153.762 156.045  0.00  0.00     0.147 C 
HETATM    9  N   UNK N   1     167.655 154.148 154.991  0.00  0.00    -0.335 N 
HETATM   10  C   UNK N   1     168.597 153.223 154.581  0.00  0.00     0.272 C 
HETATM   11  O   UNK N   1     169.487 153.543 153.807  0.00  0.00    -0.266 OA
ENDROOT
BRANCH  10  12
HETATM   12  C   UNK N   1     168.567 151.802 155.030  0.00  0.00     0.118 A 
HETATM   13  C   UNK N   1     169.210 151.305 156.148  0.00  0.00     0.064 A 
HETATM   14  C   UNK N   1     168.982 149.939 156.082  0.00  0.00     0.035 A 
HETATM   15  N   UNK N   1     168.260 149.657 154.982  0.00  0.00    -0.303 N 
HETATM   16  N   UNK N   1     168.005 150.786 154.346  0.00  0.00    -0.295 N 
ATOM     17  HN  UNK N   1     167.958 148.727 154.690  1.00  0.00     0.186 HD
HETATM   18  H   UNK N   1     167.489 150.870 153.511  0.00  0.00     0.187 HD
BRANCH  14  19
HETATM   19  C   UNK N   1     169.462 148.893 157.050  0.00  0.00    -0.007 C 
HETATM   20  C   UNK N   1     169.839 149.493 158.393  0.00  0.00     0.021 C 
HETATM   21  C   UNK N   1     168.370 147.865 157.272  0.00  0.00     0.021 C 
HETATM   22  C   UNK N   1     170.681 148.198 156.473  0.00  0.00     0.021 C 
ENDBRANCH  14  19
ENDBRANCH  10  12
BRANCH   1  23
HETATM   23  C   UNK N   1     168.388 155.856 153.189  0.00  0.00     0.027 C 
HETATM   24  C   UNK N   1     169.232 157.090 153.444  0.00  0.00     0.007 C 
ENDBRANCH   1  23
TORSDOF 3
ENDMDL
MODEL 8
REMARK VINA RESULT:      -5.5      4.607      7.231
REMARK  3 active torsions:
REMARK  status: ('A' for Active; 'I' for Inactive)
REMARK    1  A    between atoms: C_3  and  C_2 
REMARK       I    between atoms: N_11  and  C_12 
REMARK    2  A    between atoms: C_12  and  C_14 
REMARK    3  A    between atoms: C_16  and  C_17 
ROOT
HETATM    1  C   UNK N   1     165.610 155.626 153.870  0.00  0.00     0.137 C 
HETATM    2  C   UNK N   1     167.094 155.803 153.924  0.00  0.00     0.034 A 
HETATM    3  C   UNK N   1     167.892 156.860 153.534  0.00  0.00     0.028 A 
HETATM    4  C   UNK N   1     169.189 156.502 153.899  0.00  0.00     0.019 A 
HETATM    5  C   UNK N   1     169.110 155.255 154.505  0.00  0.00     0.091 A 
HETATM    6  N   UNK N   1     167.830 154.857 154.497  0.00  0.00    -0.357 N 
HETATM    7  C   UNK N   1     167.231 153.669 155.075  0.00  0.00     0.148 C 
HETATM    8  C   UNK N   1     165.974 154.099 155.860  0.00  0.00     0.147 C 
HETATM    9  N   UNK N   1     165.180 155.162 155.213  0.00  0.00    -0.335 N 
HETATM   10  C   UNK N   1     164.090 155.677 155.888  0.00  0.00     0.272 C 
HETATM   11  O   UNK N   1     163.332 156.462 155.338  0.00  0.00    -0.266 OA
ENDROOT
BRANCH  10  12
HETATM   12  C   UNK N   1     163.795 155.332 157.308  0.00  0.00     0.118 A 
HETATM   13  C   UNK N   1     164.390 155.916 158.411  0.00  0.00     0.064 A 
HETATM   14  C   UNK N   1     163.881 155.196 159.481  0.00  0.00     0.035 A 
HETATM   15  N   UNK N   1     163.050 154.241 159.027  0.00  0.00    -0.303 N 
HETATM   16  N   UNK N   1     162.995 154.324 157.710  0.00  0.00    -0.295 N 
ATOM     17  HN  UNK N   1     162.545 153.566 159.603  1.00  0.00     0.186 HD
HETATM   18  H   UNK N   1     162.458 153.747 157.120  0.00  0.00     0.187 HD
BRANCH  14  19
HETATM   19  C   UNK N   1     164.193 155.399 160.939  0.00  0.00    -0.007 C 
HETATM   20  C   UNK N   1     163.005 155.066 161.825  0.00  0.00     0.021 C 
HETATM   21  C   UNK N   1     165.356 154.511 161.339  0.00  0.00     0.021 C 
HETATM   22  C   UNK N   1     164.578 156.847 161.172  0.00  0.00     0.021 C 
ENDBRANCH  14  19
ENDBRANCH  10  12
BRANCH   1  23
HETATM   23  C   UNK N   1     164.926 156.864 153.280  0.00  0.00     0.027 C 
HETATM   24  C   UNK N   1     164.155 156.503 152.025  0.00  0.00     0.007 C 
ENDBRANCH   1  23
TORSDOF 3
ENDMDL
MODEL 9
REMARK VINA RESULT:      -5.4     13.222     15.541
REMARK  3 active torsions:
REMARK  status: ('A' for Active; 'I' for Inactive)
REMARK    1  A    between atoms: C_3  and  C_2 
REMARK       I    between atoms: N_11  and  C_12 
REMARK    2  A    between atoms: C_12  and  C_14 
REMARK    3  A    between atoms: C_16  and  C_17 
ROOT
HETATM    1  C   UNK N   1     156.343 146.706 155.853  0.00  0.00     0.137 C 
HETATM    2  C   UNK N   1     155.764 147.977 156.389  0.00  0.00     0.034 A 
HETATM    3  C   UNK N   1     156.378 149.101 156.904  0.00  0.00     0.028 A 
HETATM    4  C   UNK N   1     155.346 150.001 157.167  0.00  0.00     0.019 A 
HETATM    5  C   UNK N   1     154.162 149.384 156.784  0.00  0.00     0.091 A 
HETATM    6  N   UNK N   1     154.450 148.158 156.325  0.00  0.00    -0.357 N 
HETATM    7  C   UNK N   1     153.570 147.162 155.744  0.00  0.00     0.148 C 
HETATM    8  C   UNK N   1     154.230 146.632 154.455  0.00  0.00     0.147 C 
HETATM    9  N   UNK N   1     155.692 146.454 154.543  0.00  0.00    -0.335 N 
HETATM   10  C   UNK N   1     156.382 146.074 153.406  0.00  0.00     0.272 C 
HETATM   11  O   UNK N   1     157.569 145.790 153.465  0.00  0.00    -0.266 OA
ENDROOT
BRANCH  10  12
HETATM   12  C   UNK N   1     155.736 146.015 152.064  0.00  0.00     0.118 A 
HETATM   13  C   UNK N   1     155.691 144.898 151.249  0.00  0.00     0.064 A 
HETATM   14  C   UNK N   1     155.098 145.362 150.086  0.00  0.00     0.035 A 
HETATM   15  N   UNK N   1     154.825 146.674 150.211  0.00  0.00    -0.303 N 
HETATM   16  N   UNK N   1     155.209 147.069 151.411  0.00  0.00    -0.295 N 
ATOM     17  HN  UNK N   1     154.393 147.264 149.499  1.00  0.00     0.186 HD
HETATM   18  H   UNK N   1     155.123 147.982 151.769  0.00  0.00     0.187 HD
BRANCH  14  19
HETATM   19  C   UNK N   1     154.801 144.568 148.842  0.00  0.00    -0.007 C 
HETATM   20  C   UNK N   1     156.070 144.093 148.157  0.00  0.00     0.021 C 
HETATM   21  C   UNK N   1     153.963 143.356 149.199  0.00  0.00     0.021 C 
HETATM   22  C   UNK N   1     154.023 145.434 147.870  0.00  0.00     0.021 C 
ENDBRANCH  14  19
ENDBRANCH  10  12
BRANCH   1  23
HETATM   23  C   UNK N   1     157.874 146.728 155.908  0.00  0.00     0.027 C 
HETATM   24  C   UNK N   1     158.388 145.739 156.936  0.00  0.00     0.007 C 
ENDBRANCH   1  23
TORSDOF 3
ENDMDL
