MODEL 1
REMARK VINA RESULT:      -6.6      0.000      0.000
REMARK  4 active torsions:
REMARK  status: ('A' for Active; 'I' for Inactive)
REMARK    1  A    between atoms: C_2  and  O_3 
REMARK    2  A    between atoms: C_2  and  C_11 
REMARK    3  A    between atoms: O_3  and  C_4 
REMARK       I    between atoms: N_14  and  C_15 
REMARK    4  A    between atoms: C_15  and  C_17 
ROOT
HETATM    1  C   UNK N   1     167.578 155.056 154.499  0.00  0.00     0.089 C 
HETATM    2  C   UNK N   1     166.484 155.932 153.870  0.00  0.00     0.034 C 
HETATM    3  C   UNK N   1     166.890 157.396 153.921  0.00  0.00     0.127 C 
HETATM    4  N   UNK N   1     166.990 157.793 155.313  0.00  0.00    -0.347 N 
HETATM    5  C   UNK N   1     166.378 158.948 155.725  0.00  0.00     0.270 C 
HETATM    6  O   UNK N   1     165.780 159.629 154.900  0.00  0.00    -0.266 OA
HETATM    7  C   UNK N   1     167.713 156.929 156.239  0.00  0.00     0.127 C 
HETATM    8  C   UNK N   1     168.454 155.801 155.520  0.00  0.00     0.034 C 
ENDROOT
BRANCH   1   9
HETATM    9  C   UNK N   1     168.463 154.516 153.426  0.00  0.00     0.268 C 
HETATM   10  O   UNK N   1     169.521 155.079 153.182  0.00  0.00    -0.264 OA
BRANCH   9  11
HETATM   11  O   UNK N   1     168.084 153.412 152.729  0.00  0.00    -0.277 OA
BRANCH  11  12
HETATM   12  C   UNK N   1     167.824 153.443 151.404  0.00  0.00     0.100 A 
HETATM   13  C   UNK N   1     167.154 154.542 150.851  0.00  0.00     0.039 A 
HETATM   14  C   UNK N   1     166.874 154.576 149.482  0.00  0.00     0.003 A 
HETATM   15  C   UNK N   1     167.262 153.512 148.662  0.00  0.00     0.002 A 
HETATM   16  C   UNK N   1     167.937 152.417 149.209  0.00  0.00     0.026 A 
HETATM   17  C   UNK N   1     168.221 152.379 150.578  0.00  0.00     0.068 A 
HETATM   18 Cl   UNK N   1     169.067 150.992 151.244  0.00  0.00    -0.081 Cl
ENDBRANCH  11  12
ENDBRANCH   9  11
ENDBRANCH   1   9
BRANCH   5  19
HETATM   19  C   UNK N   1     166.412 159.434 157.139  0.00  0.00     0.100 A 
HETATM   20  C   UNK N   1     167.299 160.461 157.490  0.00  0.00     0.035 A 
HETATM   21  C   UNK N   1     167.340 160.921 158.806  0.00  0.00     0.004 A 
HETATM   22  C   UNK N   1     166.499 160.357 159.763  0.00  0.00     0.017 A 
HETATM   23  C   UNK N   1     165.626 159.336 159.387  0.00  0.00     0.088 A 
HETATM   24  N   UNK N   1     165.602 158.902 158.098  0.00  0.00    -0.361 N 
ATOM     25  HN  UNK N   1     164.957 158.154 157.842  1.00  0.00     0.165 HD
ENDBRANCH   5  19
TORSDOF 4
ENDMDL
MODEL 2
REMARK VINA RESULT:      -6.5      3.090      3.780
REMARK  4 active torsions:
REMARK  status: ('A' for Active; 'I' for Inactive)
REMARK    1  A    between atoms: C_2  and  O_3 
REMARK    2  A    between atoms: C_2  and  C_11 
REMARK    3  A    between atoms: O_3  and  C_4 
REMARK       I    between atoms: N_14  and  C_15 
REMARK    4  A    between atoms: C_15  and  C_17 
ROOT
HETATM    1  C   UNK N   1     167.699 155.332 154.618  0.00  0.00     0.089 C 
HETATM    2  C   UNK N   1     167.663 154.328 155.780  0.00  0.00     0.034 C 
HETATM    3  C   UNK N   1     166.332 153.594 155.797  0.00  0.00     0.127 C 
HETATM    4  N   UNK N   1     165.281 154.561 156.053  0.00  0.00    -0.347 N 
HETATM    5  C   UNK N   1     164.343 154.292 157.014  0.00  0.00     0.270 C 
HETATM    6  O   UNK N   1     164.402 153.229 157.620  0.00  0.00    -0.266 OA
HETATM    7  C   UNK N   1     165.277 155.808 155.296  0.00  0.00     0.127 C 
HETATM    8  C   UNK N   1     166.307 155.803 154.166  0.00  0.00     0.034 C 
ENDROOT
BRANCH   1   9
HETATM    9  C   UNK N   1     168.389 154.715 153.447  0.00  0.00     0.268 C 
HETATM   10  O   UNK N   1     169.459 155.172 153.074  0.00  0.00    -0.264 OA
BRANCH   9  11
HETATM   11  O   UNK N   1     167.818 153.661 152.805  0.00  0.00    -0.277 OA
BRANCH  11  12
HETATM   12  C   UNK N   1     167.698 153.607 151.461  0.00  0.00     0.100 A 
HETATM   13  C   UNK N   1     167.054 154.647 150.777  0.00  0.00     0.039 A 
HETATM   14  C   UNK N   1     166.918 154.593 149.387  0.00  0.00     0.003 A 
HETATM   15  C   UNK N   1     167.424 153.502 148.676  0.00  0.00     0.002 A 
HETATM   16  C   UNK N   1     168.073 152.465 149.354  0.00  0.00     0.026 A 
HETATM   17  C   UNK N   1     168.214 152.515 150.744  0.00  0.00     0.068 A 
HETATM   18 Cl   UNK N   1     169.030 151.202 151.575  0.00  0.00    -0.081 Cl
ENDBRANCH  11  12
ENDBRANCH   9  11
ENDBRANCH   1   9
BRANCH   5  19
HETATM   19  C   UNK N   1     163.230 155.231 157.359  0.00  0.00     0.100 A 
HETATM   20  C   UNK N   1     163.427 156.188 158.364  0.00  0.00     0.035 A 
HETATM   21  C   UNK N   1     162.396 157.068 158.695  0.00  0.00     0.004 A 
HETATM   22  C   UNK N   1     161.178 156.989 158.023  0.00  0.00     0.017 A 
HETATM   23  C   UNK N   1     161.009 156.028 157.027  0.00  0.00     0.088 A 
HETATM   24  N   UNK N   1     162.026 155.180 156.720  0.00  0.00    -0.361 N 
ATOM     25  HN  UNK N   1     161.884 154.482 155.989  1.00  0.00     0.165 HD
ENDBRANCH   5  19
TORSDOF 4
ENDMDL
MODEL 3
REMARK VINA RESULT:      -6.4      3.881      8.349
REMARK  4 active torsions:
REMARK  status: ('A' for Active; 'I' for Inactive)
REMARK    1  A    between atoms: C_2  and  O_3 
REMARK    2  A    between atoms: C_2  and  C_11 
REMARK    3  A    between atoms: O_3  and  C_4 
REMARK       I    between atoms: N_14  and  C_15 
REMARK    4  A    between atoms: C_15  and  C_17 
ROOT
HETATM    1  C   UNK N   1     167.372 155.018 153.732  0.00  0.00     0.089 C 
HETATM    2  C   UNK N   1     166.728 154.144 154.819  0.00  0.00     0.034 C 
HETATM    3  C   UNK N   1     167.787 153.302 155.511  0.00  0.00     0.127 C 
HETATM    4  N   UNK N   1     168.358 152.394 154.533  0.00  0.00    -0.347 N 
HETATM    5  C   UNK N   1     168.479 151.065 154.845  0.00  0.00     0.270 C 
HETATM    6  O   UNK N   1     168.123 150.680 155.952  0.00  0.00    -0.266 OA
HETATM    7  C   UNK N   1     168.755 152.922 153.233  0.00  0.00     0.127 C 
HETATM    8  C   UNK N   1     168.692 154.449 153.185  0.00  0.00     0.034 C 
ENDROOT
BRANCH   1   9
HETATM    9  C   UNK N   1     167.639 156.380 154.280  0.00  0.00     0.268 C 
HETATM   10  O   UNK N   1     168.631 156.564 154.969  0.00  0.00    -0.264 OA
BRANCH   9  11
HETATM   11  O   UNK N   1     166.776 157.396 154.013  0.00  0.00    -0.277 OA
BRANCH  11  12
HETATM   12  C   UNK N   1     165.714 157.674 154.800  0.00  0.00     0.100 A 
HETATM   13  C   UNK N   1     165.898 158.396 155.987  0.00  0.00     0.039 A 
HETATM   14  C   UNK N   1     164.805 158.679 156.812  0.00  0.00     0.003 A 
HETATM   15  C   UNK N   1     163.527 158.241 156.454  0.00  0.00     0.002 A 
HETATM   16  C   UNK N   1     163.339 157.526 155.267  0.00  0.00     0.026 A 
HETATM   17  C   UNK N   1     164.428 157.242 154.438  0.00  0.00     0.068 A 
HETATM   18 Cl   UNK N   1     164.169 156.341 152.954  0.00  0.00    -0.081 Cl
ENDBRANCH  11  12
ENDBRANCH   9  11
ENDBRANCH   1   9
BRANCH   5  19
HETATM   19  C   UNK N   1     169.041 150.050 153.901  0.00  0.00     0.100 A 
HETATM   20  C   UNK N   1     170.419 149.794 153.909  0.00  0.00     0.035 A 
HETATM   21  C   UNK N   1     170.954 148.851 153.033  0.00  0.00     0.004 A 
HETATM   22  C   UNK N   1     170.115 148.168 152.154  0.00  0.00     0.017 A 
HETATM   23  C   UNK N   1     168.748 148.442 152.167  0.00  0.00     0.088 A 
HETATM   24  N   UNK N   1     168.246 149.365 153.029  0.00  0.00    -0.361 N 
ATOM     25  HN  UNK N   1     167.243 149.553 153.023  1.00  0.00     0.165 HD
ENDBRANCH   5  19
TORSDOF 4
ENDMDL
MODEL 4
REMARK VINA RESULT:      -6.4      3.697      8.592
REMARK  4 active torsions:
REMARK  status: ('A' for Active; 'I' for Inactive)
REMARK    1  A    between atoms: C_2  and  O_3 
REMARK    2  A    between atoms: C_2  and  C_11 
REMARK    3  A    between atoms: O_3  and  C_4 
REMARK       I    between atoms: N_14  and  C_15 
REMARK    4  A    between atoms: C_15  and  C_17 
ROOT
HETATM    1  C   UNK N   1     166.818 155.147 154.006  0.00  0.00     0.089 C 
HETATM    2  C   UNK N   1     166.409 154.194 155.139  0.00  0.00     0.034 C 
HETATM    3  C   UNK N   1     167.628 153.459 155.672  0.00  0.00     0.127 C 
HETATM    4  N   UNK N   1     168.162 152.631 154.607  0.00  0.00    -0.347 N 
HETATM    5  C   UNK N   1     168.459 151.318 154.864  0.00  0.00     0.270 C 
HETATM    6  O   UNK N   1     168.285 150.881 155.996  0.00  0.00    -0.266 OA
HETATM    7  C   UNK N   1     168.338 153.217 153.283  0.00  0.00     0.127 C 
HETATM    8  C   UNK N   1     168.111 154.729 153.285  0.00  0.00     0.034 C 
ENDROOT
BRANCH   1   9
HETATM    9  C   UNK N   1     167.009 156.521 154.554  0.00  0.00     0.268 C 
HETATM   10  O   UNK N   1     167.782 157.287 153.995  0.00  0.00    -0.264 OA
BRANCH   9  11
HETATM   11  O   UNK N   1     166.330 156.905 155.668  0.00  0.00    -0.277 OA
BRANCH  11  12
HETATM   12  C   UNK N   1     166.684 157.983 156.399  0.00  0.00     0.100 A 
HETATM   13  C   UNK N   1     166.138 159.238 156.099  0.00  0.00     0.039 A 
HETATM   14  C   UNK N   1     166.506 160.361 156.846  0.00  0.00     0.003 A 
HETATM   15  C   UNK N   1     167.421 160.233 157.895  0.00  0.00     0.002 A 
HETATM   16  C   UNK N   1     167.963 158.981 158.202  0.00  0.00     0.026 A 
HETATM   17  C   UNK N   1     167.597 157.855 157.459  0.00  0.00     0.068 A 
HETATM   18 Cl   UNK N   1     168.292 156.294 157.861  0.00  0.00    -0.081 Cl
ENDBRANCH  11  12
ENDBRANCH   9  11
ENDBRANCH   1   9
BRANCH   5  19
HETATM   19  C   UNK N   1     169.000 150.382 153.830  0.00  0.00     0.100 A 
HETATM   20  C   UNK N   1     170.377 150.373 153.567  0.00  0.00     0.035 A 
HETATM   21  C   UNK N   1     170.893 149.506 152.604  0.00  0.00     0.004 A 
HETATM   22  C   UNK N   1     170.036 148.653 151.911  0.00  0.00     0.017 A 
HETATM   23  C   UNK N   1     168.671 148.682 152.193  0.00  0.00     0.088 A 
HETATM   24  N   UNK N   1     168.188 149.535 153.135  0.00  0.00    -0.361 N 
ATOM     25  HN  UNK N   1     167.186 149.543 153.327  1.00  0.00     0.165 HD
ENDBRANCH   5  19
TORSDOF 4
ENDMDL
MODEL 5
REMARK VINA RESULT:      -6.3      3.273      8.152
REMARK  4 active torsions:
REMARK  status: ('A' for Active; 'I' for Inactive)
REMARK    1  A    between atoms: C_2  and  O_3 
REMARK    2  A    between atoms: C_2  and  C_11 
REMARK    3  A    between atoms: O_3  and  C_4 
REMARK       I    between atoms: N_14  and  C_15 
REMARK    4  A    between atoms: C_15  and  C_17 
ROOT
HETATM    1  C   UNK N   1     167.347 157.236 154.782  0.00  0.00     0.089 C 
HETATM    2  C   UNK N   1     167.732 156.956 153.322  0.00  0.00     0.034 C 
HETATM    3  C   UNK N   1     167.111 155.648 152.858  0.00  0.00     0.127 C 
HETATM    4  N   UNK N   1     167.674 154.570 153.649  0.00  0.00    -0.347 N 
HETATM    5  C   UNK N   1     168.146 153.451 153.015  0.00  0.00     0.270 C 
HETATM    6  O   UNK N   1     168.061 153.379 151.795  0.00  0.00    -0.266 OA
HETATM    7  C   UNK N   1     167.747 154.727 155.097  0.00  0.00     0.127 C 
HETATM    8  C   UNK N   1     167.001 155.970 155.583  0.00  0.00     0.034 C 
ENDROOT
BRANCH   1   9
HETATM    9  C   UNK N   1     166.171 158.153 154.821  0.00  0.00     0.268 C 
HETATM   10  O   UNK N   1     165.769 158.655 153.781  0.00  0.00    -0.264 OA
BRANCH   9  11
HETATM   11  O   UNK N   1     165.566 158.426 156.007  0.00  0.00    -0.277 OA
BRANCH  11  12
HETATM   12  C   UNK N   1     166.138 159.200 156.954  0.00  0.00     0.100 A 
HETATM   13  C   UNK N   1     166.628 160.468 156.614  0.00  0.00     0.039 A 
HETATM   14  C   UNK N   1     167.229 161.272 157.587  0.00  0.00     0.003 A 
HETATM   15  C   UNK N   1     167.345 160.810 158.902  0.00  0.00     0.002 A 
HETATM   16  C   UNK N   1     166.851 159.548 159.246  0.00  0.00     0.026 A 
HETATM   17  C   UNK N   1     166.247 158.741 158.277  0.00  0.00     0.068 A 
HETATM   18 Cl   UNK N   1     165.638 157.159 158.731  0.00  0.00    -0.081 Cl
ENDBRANCH  11  12
ENDBRANCH   9  11
ENDBRANCH   1   9
BRANCH   5  19
HETATM   19  C   UNK N   1     168.756 152.293 153.741  0.00  0.00     0.100 A 
HETATM   20  C   UNK N   1     170.131 152.055 153.619  0.00  0.00     0.035 A 
HETATM   21  C   UNK N   1     170.710 150.978 154.291  0.00  0.00     0.004 A 
HETATM   22  C   UNK N   1     169.916 150.147 155.079  0.00  0.00     0.017 A 
HETATM   23  C   UNK N   1     168.550 150.407 155.182  0.00  0.00     0.088 A 
HETATM   24  N   UNK N   1     168.006 151.462 154.519  0.00  0.00    -0.361 N 
ATOM     25  HN  UNK N   1     167.004 151.636 154.606  1.00  0.00     0.165 HD
ENDBRANCH   5  19
TORSDOF 4
ENDMDL
MODEL 6
REMARK VINA RESULT:      -6.0     14.422     16.498
REMARK  4 active torsions:
REMARK  status: ('A' for Active; 'I' for Inactive)
REMARK    1  A    between atoms: C_2  and  O_3 
REMARK    2  A    between atoms: C_2  and  C_11 
REMARK    3  A    between atoms: O_3  and  C_4 
REMARK       I    between atoms: N_14  and  C_15 
REMARK    4  A    between atoms: C_15  and  C_17 
ROOT
HETATM    1  C   UNK N   1     157.023 148.125 155.961  0.00  0.00     0.089 C 
HETATM    2  C   UNK N   1     155.495 148.276 155.989  0.00  0.00     0.034 C 
HETATM    3  C   UNK N   1     154.834 147.012 155.462  0.00  0.00     0.127 C 
HETATM    4  N   UNK N   1     155.209 146.849 154.069  0.00  0.00    -0.347 N 
HETATM    5  C   UNK N   1     154.236 146.586 153.141  0.00  0.00     0.270 C 
HETATM    6  O   UNK N   1     153.074 146.475 153.513  0.00  0.00    -0.266 OA
HETATM    7  C   UNK N   1     156.611 147.001 153.698  0.00  0.00     0.127 C 
HETATM    8  C   UNK N   1     157.524 147.111 154.919  0.00  0.00     0.034 C 
ENDROOT
BRANCH   1   9
HETATM    9  C   UNK N   1     157.507 147.696 157.305  0.00  0.00     0.268 C 
HETATM   10  O   UNK N   1     158.272 148.420 157.925  0.00  0.00    -0.264 OA
BRANCH   9  11
HETATM   11  O   UNK N   1     157.100 146.506 157.821  0.00  0.00    -0.277 OA
BRANCH  11  12
HETATM   12  C   UNK N   1     157.968 145.563 158.248  0.00  0.00     0.100 A 
HETATM   13  C   UNK N   1     158.628 144.752 157.316  0.00  0.00     0.039 A 
HETATM   14  C   UNK N   1     159.521 143.768 157.750  0.00  0.00     0.003 A 
HETATM   15  C   UNK N   1     159.757 143.592 159.117  0.00  0.00     0.002 A 
HETATM   16  C   UNK N   1     159.106 144.405 160.049  0.00  0.00     0.026 A 
HETATM   17  C   UNK N   1     158.213 145.391 159.620  0.00  0.00     0.068 A 
HETATM   18 Cl   UNK N   1     157.404 146.398 160.809  0.00  0.00    -0.081 Cl
ENDBRANCH  11  12
ENDBRANCH   9  11
ENDBRANCH   1   9
BRANCH   5  19
HETATM   19  C   UNK N   1     154.520 146.415 151.682  0.00  0.00     0.100 A 
HETATM   20  C   UNK N   1     154.706 145.125 151.166  0.00  0.00     0.035 A 
HETATM   21  C   UNK N   1     154.973 144.953 149.808  0.00  0.00     0.004 A 
HETATM   22  C   UNK N   1     155.053 146.066 148.973  0.00  0.00     0.017 A 
HETATM   23  C   UNK N   1     154.863 147.338 149.512  0.00  0.00     0.088 A 
HETATM   24  N   UNK N   1     154.604 147.484 150.839  0.00  0.00    -0.361 N 
ATOM     25  HN  UNK N   1     154.470 148.422 151.216  1.00  0.00     0.165 HD
ENDBRANCH   5  19
TORSDOF 4
ENDMDL
MODEL 7
REMARK VINA RESULT:      -5.9      4.341      5.455
REMARK  4 active torsions:
REMARK  status: ('A' for Active; 'I' for Inactive)
REMARK    1  A    between atoms: C_2  and  O_3 
REMARK    2  A    between atoms: C_2  and  C_11 
REMARK    3  A    between atoms: O_3  and  C_4 
REMARK       I    between atoms: N_14  and  C_15 
REMARK    4  A    between atoms: C_15  and  C_17 
ROOT
HETATM    1  C   UNK N   1     165.505 157.068 155.654  0.00  0.00     0.089 C 
HETATM    2  C   UNK N   1     164.884 155.743 155.187  0.00  0.00     0.034 C 
HETATM    3  C   UNK N   1     163.410 155.938 154.872  0.00  0.00     0.127 C 
HETATM    4  N   UNK N   1     162.727 156.306 156.098  0.00  0.00    -0.347 N 
HETATM    5  C   UNK N   1     161.574 155.652 156.444  0.00  0.00     0.270 C 
HETATM    6  O   UNK N   1     161.136 154.786 155.697  0.00  0.00    -0.266 OA
HETATM    7  C   UNK N   1     163.310 157.344 156.941  0.00  0.00     0.127 C 
HETATM    8  C   UNK N   1     164.488 158.046 156.264  0.00  0.00     0.034 C 
ENDROOT
BRANCH   1   9
HETATM    9  C   UNK N   1     166.170 157.742 154.500  0.00  0.00     0.268 C 
HETATM   10  O   UNK N   1     165.562 158.600 153.876  0.00  0.00    -0.264 OA
BRANCH   9  11
HETATM   11  O   UNK N   1     167.437 157.392 154.152  0.00  0.00    -0.277 OA
BRANCH  11  12
HETATM   12  C   UNK N   1     167.757 156.151 153.727  0.00  0.00     0.100 A 
HETATM   13  C   UNK N   1     167.266 155.687 152.500  0.00  0.00     0.039 A 
HETATM   14  C   UNK N   1     167.585 154.400 152.057  0.00  0.00     0.003 A 
HETATM   15  C   UNK N   1     168.396 153.573 152.839  0.00  0.00     0.002 A 
HETATM   16  C   UNK N   1     168.894 154.035 154.061  0.00  0.00     0.026 A 
HETATM   17  C   UNK N   1     168.579 155.322 154.508  0.00  0.00     0.068 A 
HETATM   18 Cl   UNK N   1     169.213 155.880 156.046  0.00  0.00    -0.081 Cl
ENDBRANCH  11  12
ENDBRANCH   9  11
ENDBRANCH   1   9
BRANCH   5  19
HETATM   19  C   UNK N   1     160.806 155.950 157.693  0.00  0.00     0.100 A 
HETATM   20  C   UNK N   1     159.723 156.839 157.637  0.00  0.00     0.035 A 
HETATM   21  C   UNK N   1     159.001 157.125 158.795  0.00  0.00     0.004 A 
HETATM   22  C   UNK N   1     159.360 156.526 160.000  0.00  0.00     0.017 A 
HETATM   23  C   UNK N   1     160.441 155.646 160.028  0.00  0.00     0.088 A 
HETATM   24  N   UNK N   1     161.132 155.380 158.888  0.00  0.00    -0.361 N 
ATOM     25  HN  UNK N   1     161.921 154.734 158.928  1.00  0.00     0.165 HD
ENDBRANCH   5  19
TORSDOF 4
ENDMDL
MODEL 8
REMARK VINA RESULT:      -5.9      4.469      7.898
REMARK  4 active torsions:
REMARK  status: ('A' for Active; 'I' for Inactive)
REMARK    1  A    between atoms: C_2  and  O_3 
REMARK    2  A    between atoms: C_2  and  C_11 
REMARK    3  A    between atoms: O_3  and  C_4 
REMARK       I    between atoms: N_14  and  C_15 
REMARK    4  A    between atoms: C_15  and  C_17 
ROOT
HETATM    1  C   UNK N   1     168.082 154.866 154.368  0.00  0.00     0.089 C 
HETATM    2  C   UNK N   1     169.349 154.244 153.762  0.00  0.00     0.034 C 
HETATM    3  C   UNK N   1     169.040 152.864 153.205  0.00  0.00     0.127 C 
HETATM    4  N   UNK N   1     168.644 152.006 154.307  0.00  0.00    -0.347 N 
HETATM    5  C   UNK N   1     169.217 150.768 154.431  0.00  0.00     0.270 C 
HETATM    6  O   UNK N   1     170.035 150.406 153.594  0.00  0.00    -0.266 OA
HETATM    7  C   UNK N   1     167.667 152.506 155.268  0.00  0.00     0.127 C 
HETATM    8  C   UNK N   1     167.042 153.829 154.824  0.00  0.00     0.034 C 
ENDROOT
BRANCH   1   9
HETATM    9  C   UNK N   1     167.439 155.766 153.366  0.00  0.00     0.268 C 
HETATM   10  O   UNK N   1     168.092 156.162 152.411  0.00  0.00    -0.264 OA
BRANCH   9  11
HETATM   11  O   UNK N   1     166.142 156.140 153.528  0.00  0.00    -0.277 OA
BRANCH  11  12
HETATM   12  C   UNK N   1     165.748 156.995 154.496  0.00  0.00     0.100 A 
HETATM   13  C   UNK N   1     166.542 158.106 154.810  0.00  0.00     0.039 A 
HETATM   14  C   UNK N   1     166.144 158.990 155.817  0.00  0.00     0.003 A 
HETATM   15  C   UNK N   1     164.954 158.766 156.514  0.00  0.00     0.002 A 
HETATM   16  C   UNK N   1     164.156 157.662 156.200  0.00  0.00     0.026 A 
HETATM   17  C   UNK N   1     164.548 156.776 155.192  0.00  0.00     0.068 A 
HETATM   18 Cl   UNK N   1     163.532 155.395 154.816  0.00  0.00    -0.081 Cl
ENDBRANCH  11  12
ENDBRANCH   9  11
ENDBRANCH   1   9
BRANCH   5  19
HETATM   19  C   UNK N   1     168.884 149.818 155.538  0.00  0.00     0.100 A 
HETATM   20  C   UNK N   1     169.671 149.814 156.698  0.00  0.00     0.035 A 
HETATM   21  C   UNK N   1     169.371 148.932 157.736  0.00  0.00     0.004 A 
HETATM   22  C   UNK N   1     168.290 148.061 157.613  0.00  0.00     0.017 A 
HETATM   23  C   UNK N   1     167.524 148.086 156.449  0.00  0.00     0.088 A 
HETATM   24  N   UNK N   1     167.833 148.954 155.448  0.00  0.00    -0.361 N 
ATOM     25  HN  UNK N   1     167.261 148.957 154.603  1.00  0.00     0.165 HD
ENDBRANCH   5  19
TORSDOF 4
ENDMDL
MODEL 9
REMARK VINA RESULT:      -5.8     13.876     14.811
REMARK  4 active torsions:
REMARK  status: ('A' for Active; 'I' for Inactive)
REMARK    1  A    between atoms: C_2  and  O_3 
REMARK    2  A    between atoms: C_2  and  C_11 
REMARK    3  A    between atoms: O_3  and  C_4 
REMARK       I    between atoms: N_14  and  C_15 
REMARK    4  A    between atoms: C_15  and  C_17 
ROOT
HETATM    1  C   UNK N   1     159.334 145.422 159.328  0.00  0.00     0.089 C 
HETATM    2  C   UNK N   1     159.036 144.436 160.467  0.00  0.00     0.034 C 
HETATM    3  C   UNK N   1     158.550 145.188 161.696  0.00  0.00     0.127 C 
HETATM    4  N   UNK N   1     159.625 146.045 162.161  0.00  0.00    -0.347 N 
HETATM    5  C   UNK N   1     159.961 146.037 163.489  0.00  0.00     0.270 C 
HETATM    6  O   UNK N   1     159.329 145.321 164.257  0.00  0.00    -0.266 OA
HETATM    7  C   UNK N   1     160.336 146.867 161.189  0.00  0.00     0.127 C 
HETATM    8  C   UNK N   1     159.670 146.842 159.812  0.00  0.00     0.034 C 
ENDROOT
BRANCH   1   9
HETATM    9  C   UNK N   1     158.155 145.504 158.417  0.00  0.00     0.268 C 
HETATM   10  O   UNK N   1     157.179 144.801 158.636  0.00  0.00    -0.264 OA
BRANCH   9  11
HETATM   11  O   UNK N   1     158.181 146.349 157.352  0.00  0.00    -0.277 OA
BRANCH  11  12
HETATM   12  C   UNK N   1     157.226 147.280 157.140  0.00  0.00     0.100 A 
HETATM   13  C   UNK N   1     157.241 148.473 157.874  0.00  0.00     0.039 A 
HETATM   14  C   UNK N   1     156.251 149.437 157.666  0.00  0.00     0.003 A 
HETATM   15  C   UNK N   1     155.243 149.213 156.724  0.00  0.00     0.002 A 
HETATM   16  C   UNK N   1     155.229 148.026 155.984  0.00  0.00     0.026 A 
HETATM   17  C   UNK N   1     156.218 147.059 156.187  0.00  0.00     0.068 A 
HETATM   18 Cl   UNK N   1     156.179 145.576 155.250  0.00  0.00    -0.081 Cl
ENDBRANCH  11  12
ENDBRANCH   9  11
ENDBRANCH   1   9
BRANCH   5  19
HETATM   19  C   UNK N   1     161.061 146.874 164.061  0.00  0.00     0.100 A 
HETATM   20  C   UNK N   1     160.737 147.997 164.834  0.00  0.00     0.035 A 
HETATM   21  C   UNK N   1     161.755 148.785 165.372  0.00  0.00     0.004 A 
HETATM   22  C   UNK N   1     163.087 148.450 165.136  0.00  0.00     0.017 A 
HETATM   23  C   UNK N   1     163.381 147.327 164.364  0.00  0.00     0.088 A 
HETATM   24  N   UNK N   1     162.374 146.572 163.849  0.00  0.00    -0.361 N 
ATOM     25  HN  UNK N   1     162.608 145.755 163.285  1.00  0.00     0.165 HD
ENDBRANCH   5  19
TORSDOF 4
ENDMDL
