MODEL 1
REMARK VINA RESULT:      -7.0      0.000      0.000
REMARK  5 active torsions:
REMARK  status: ('A' for Active; 'I' for Inactive)
REMARK    1  A    between atoms: C_7  and  C_8 
REMARK    2  A    between atoms: C_11  and  N_12 
REMARK    3  A    between atoms: N_12  and  C_13 
REMARK    4  A    between atoms: C_13  and  C_14 
REMARK    5  A    between atoms: C_19  and  C_20 
ROOT
HETATM    1  N   UNK N   1     168.471 156.864 156.739  0.00  0.00    -0.386 N 
HETATM    2  H   UNK N   1     169.388 156.929 157.092  0.00  0.00     0.160 HD
ENDROOT
BRANCH   1   3
HETATM    3  C   UNK N   1     168.291 156.164 155.513  0.00  0.00     0.028 A 
HETATM    4  C   UNK N   1     167.485 155.020 155.497  0.00  0.00     0.030 A 
HETATM    5  C   UNK N   1     167.259 154.328 154.302  0.00  0.00     0.018 A 
HETATM    6  C   UNK N   1     167.804 154.800 153.101  0.00  0.00     0.017 A 
HETATM    7  C   UNK N   1     168.604 155.948 153.113  0.00  0.00     0.018 A 
HETATM    8  C   UNK N   1     168.859 156.614 154.314  0.00  0.00     0.030 A 
BRANCH   6   9
HETATM    9  C   UNK N   1     167.529 154.102 151.838  0.00  0.00     0.174 A 
HETATM   10  N   UNK N   1     167.990 152.876 151.522  0.00  0.00    -0.277 N 
HETATM   11  N   UNK N   1     167.531 152.599 150.312  0.00  0.00    -0.281 N 
ATOM     12  HN  UNK N   1     168.580 152.278 152.102  1.00  0.00     0.189 HD
HETATM   13  C   UNK N   1     166.800 153.661 149.927  0.00  0.00     0.136 A 
ATOM     14  HN  UNK N   1     167.699 151.747 149.776  1.00  0.00     0.189 HD
HETATM   15  C   UNK N   1     166.076 153.760 148.632  0.00  0.00     0.099 C 
HETATM   16  O   UNK N   1     166.801 154.583 150.858  0.00  0.00    -0.278 OA
ENDBRANCH   6   9
ENDBRANCH   1   3
BRANCH   1  17
HETATM   17  C   UNK N   1     167.413 157.489 157.513  0.00  0.00     0.162 C 
BRANCH  17  18
HETATM   18  C   UNK N   1     166.926 158.835 157.049  0.00  0.00     0.005 A 
HETATM   19  C   UNK N   1     167.270 160.089 157.512  0.00  0.00     0.118 A 
HETATM   20  N   UNK N   1     166.509 160.996 156.865  0.00  0.00    -0.311 N 
HETATM   21  N   UNK N   1     165.707 160.369 156.017  0.00  0.00    -0.300 N 
HETATM   22  H   UNK N   1     166.545 161.971 157.001  0.00  0.00     0.186 HD
HETATM   23  C   UNK N   1     165.948 159.048 156.095  0.00  0.00     0.070 A 
ATOM     24  HN  UNK N   1     165.020 160.814 155.408  1.00  0.00     0.187 HD
BRANCH  23  25
HETATM   25  C   UNK N   1     165.261 158.030 155.260  0.00  0.00     0.031 A 
HETATM   26  C   UNK N   1     164.377 157.117 155.858  0.00  0.00     0.017 A 
HETATM   27  C   UNK N   1     163.755 156.123 155.099  0.00  0.00     0.001 A 
HETATM   28  C   UNK N   1     164.000 156.037 153.729  0.00  0.00     0.003 A 
HETATM   29  C   UNK N   1     164.864 156.947 153.116  0.00  0.00     0.043 A 
HETATM   30  C   UNK N   1     165.502 157.937 153.874  0.00  0.00     0.129 A 
HETATM   31  F   UNK N   1     166.322 158.816 153.249  0.00  0.00    -0.205 F 
ENDBRANCH  23  25
ENDBRANCH  17  18
ENDBRANCH   1  17
TORSDOF 5
ENDMDL
MODEL 2
REMARK VINA RESULT:      -6.4      3.256      6.539
REMARK  5 active torsions:
REMARK  status: ('A' for Active; 'I' for Inactive)
REMARK    1  A    between atoms: C_7  and  C_8 
REMARK    2  A    between atoms: C_11  and  N_12 
REMARK    3  A    between atoms: N_12  and  C_13 
REMARK    4  A    between atoms: C_13  and  C_14 
REMARK    5  A    between atoms: C_19  and  C_20 
ROOT
HETATM    1  N   UNK N   1     166.119 153.687 156.131  0.00  0.00    -0.386 N 
HETATM    2  H   UNK N   1     165.943 152.772 156.449  0.00  0.00     0.160 HD
ENDROOT
BRANCH   1   3
HETATM    3  C   UNK N   1     165.047 154.621 156.202  0.00  0.00     0.028 A 
HETATM    4  C   UNK N   1     165.294 155.899 156.716  0.00  0.00     0.030 A 
HETATM    5  C   UNK N   1     164.272 156.852 156.768  0.00  0.00     0.018 A 
HETATM    6  C   UNK N   1     163.000 156.549 156.266  0.00  0.00     0.017 A 
HETATM    7  C   UNK N   1     162.752 155.274 155.744  0.00  0.00     0.018 A 
HETATM    8  C   UNK N   1     163.765 154.313 155.729  0.00  0.00     0.030 A 
BRANCH   6   9
HETATM    9  C   UNK N   1     161.938 157.564 156.277  0.00  0.00     0.174 A 
HETATM   10  N   UNK N   1     160.728 157.404 156.847  0.00  0.00    -0.277 N 
HETATM   11  N   UNK N   1     160.062 158.529 156.645  0.00  0.00    -0.281 N 
ATOM     12  HN  UNK N   1     160.390 156.576 157.339  1.00  0.00     0.189 HD
HETATM   13  C   UNK N   1     160.885 159.345 155.961  0.00  0.00     0.136 A 
ATOM     14  HN  UNK N   1     159.110 158.738 156.947  1.00  0.00     0.189 HD
HETATM   15  C   UNK N   1     160.543 160.730 155.543  0.00  0.00     0.099 C 
HETATM   16  O   UNK N   1     162.032 158.754 155.731  0.00  0.00    -0.278 OA
ENDBRANCH   6   9
ENDBRANCH   1   3
BRANCH   1  17
HETATM   17  C   UNK N   1     167.450 153.973 155.628  0.00  0.00     0.162 C 
BRANCH  17  18
HETATM   18  C   UNK N   1     167.695 153.747 154.161  0.00  0.00     0.005 A 
HETATM   19  C   UNK N   1     168.365 152.710 153.542  0.00  0.00     0.118 A 
HETATM   20  N   UNK N   1     168.419 152.977 152.221  0.00  0.00    -0.311 N 
HETATM   21  N   UNK N   1     167.811 154.131 151.983  0.00  0.00    -0.300 N 
HETATM   22  H   UNK N   1     168.841 152.404 151.540  0.00  0.00     0.186 HD
HETATM   23  C   UNK N   1     167.345 154.619 153.146  0.00  0.00     0.070 A 
ATOM     24  HN  UNK N   1     167.715 154.575 151.069  1.00  0.00     0.187 HD
BRANCH  23  25
HETATM   25  C   UNK N   1     166.573 155.882 153.265  0.00  0.00     0.031 A 
HETATM   26  C   UNK N   1     165.237 155.927 152.834  0.00  0.00     0.017 A 
HETATM   27  C   UNK N   1     164.507 157.116 152.895  0.00  0.00     0.001 A 
HETATM   28  C   UNK N   1     165.100 158.273 153.400  0.00  0.00     0.003 A 
HETATM   29  C   UNK N   1     166.423 158.241 153.847  0.00  0.00     0.043 A 
HETATM   30  C   UNK N   1     167.165 157.056 153.775  0.00  0.00     0.129 A 
HETATM   31  F   UNK N   1     168.440 157.051 154.232  0.00  0.00    -0.205 F 
ENDBRANCH  23  25
ENDBRANCH  17  18
ENDBRANCH   1  17
TORSDOF 5
ENDMDL
MODEL 3
REMARK VINA RESULT:      -6.4      1.473      1.826
REMARK  5 active torsions:
REMARK  status: ('A' for Active; 'I' for Inactive)
REMARK    1  A    between atoms: C_7  and  C_8 
REMARK    2  A    between atoms: C_11  and  N_12 
REMARK    3  A    between atoms: N_12  and  C_13 
REMARK    4  A    between atoms: C_13  and  C_14 
REMARK    5  A    between atoms: C_19  and  C_20 
ROOT
HETATM    1  N   UNK N   1     168.883 155.536 157.422  0.00  0.00    -0.386 N 
HETATM    2  H   UNK N   1     169.757 155.337 157.829  0.00  0.00     0.160 HD
ENDROOT
BRANCH   1   3
HETATM    3  C   UNK N   1     168.676 155.111 156.079  0.00  0.00     0.028 A 
HETATM    4  C   UNK N   1     167.707 154.134 155.819  0.00  0.00     0.030 A 
HETATM    5  C   UNK N   1     167.453 153.718 154.508  0.00  0.00     0.018 A 
HETATM    6  C   UNK N   1     168.138 154.307 153.437  0.00  0.00     0.017 A 
HETATM    7  C   UNK N   1     169.101 155.289 153.694  0.00  0.00     0.018 A 
HETATM    8  C   UNK N   1     169.379 155.674 155.007  0.00  0.00     0.030 A 
BRANCH   6   9
HETATM    9  C   UNK N   1     167.839 153.906 152.056  0.00  0.00     0.174 A 
HETATM   10  N   UNK N   1     167.938 152.647 151.583  0.00  0.00    -0.277 N 
HETATM   11  N   UNK N   1     167.588 152.693 150.308  0.00  0.00    -0.281 N 
ATOM     12  HN  UNK N   1     168.227 151.820 152.107  1.00  0.00     0.189 HD
HETATM   13  C   UNK N   1     167.282 153.976 150.040  0.00  0.00     0.136 A 
ATOM     14  HN  UNK N   1     167.557 151.909 149.655  1.00  0.00     0.189 HD
HETATM   15  C   UNK N   1     166.812 154.471 148.720  0.00  0.00     0.099 C 
HETATM   16  O   UNK N   1     167.439 154.719 151.107  0.00  0.00    -0.278 OA
ENDBRANCH   6   9
ENDBRANCH   1   3
BRANCH   1  17
HETATM   17  C   UNK N   1     167.912 156.239 158.239  0.00  0.00     0.162 C 
BRANCH  17  18
HETATM   18  C   UNK N   1     167.774 157.722 158.022  0.00  0.00     0.005 A 
HETATM   19  C   UNK N   1     168.295 158.760 158.767  0.00  0.00     0.118 A 
HETATM   20  N   UNK N   1     167.830 159.918 158.254  0.00  0.00    -0.311 N 
HETATM   21  N   UNK N   1     167.044 159.653 157.220  0.00  0.00    -0.300 N 
HETATM   22  H   UNK N   1     168.042 160.818 158.593  0.00  0.00     0.186 HD
HETATM   23  C   UNK N   1     167.002 158.320 157.044  0.00  0.00     0.070 A 
ATOM     24  HN  UNK N   1     166.552 160.344 156.654  1.00  0.00     0.187 HD
BRANCH  23  25
HETATM   25  C   UNK N   1     166.248 157.652 155.952  0.00  0.00     0.031 A 
HETATM   26  C   UNK N   1     166.623 157.862 154.615  0.00  0.00     0.017 A 
HETATM   27  C   UNK N   1     165.900 157.280 153.571  0.00  0.00     0.001 A 
HETATM   28  C   UNK N   1     164.800 156.470 153.852  0.00  0.00     0.003 A 
HETATM   29  C   UNK N   1     164.424 156.239 155.177  0.00  0.00     0.043 A 
HETATM   30  C   UNK N   1     165.135 156.831 156.227  0.00  0.00     0.129 A 
HETATM   31  F   UNK N   1     164.757 156.575 157.503  0.00  0.00    -0.205 F 
ENDBRANCH  23  25
ENDBRANCH  17  18
ENDBRANCH   1  17
TORSDOF 5
ENDMDL
MODEL 4
REMARK VINA RESULT:      -6.2     13.337     15.154
REMARK  5 active torsions:
REMARK  status: ('A' for Active; 'I' for Inactive)
REMARK    1  A    between atoms: C_7  and  C_8 
REMARK    2  A    between atoms: C_11  and  N_12 
REMARK    3  A    between atoms: N_12  and  C_13 
REMARK    4  A    between atoms: C_13  and  C_14 
REMARK    5  A    between atoms: C_19  and  C_20 
ROOT
HETATM    1  N   UNK N   1     154.312 146.051 157.553  0.00  0.00    -0.386 N 
HETATM    2  H   UNK N   1     153.567 146.529 157.985  0.00  0.00     0.160 HD
ENDROOT
BRANCH   1   3
HETATM    3  C   UNK N   1     154.347 146.047 156.130  0.00  0.00     0.028 A 
HETATM    4  C   UNK N   1     153.861 147.162 155.436  0.00  0.00     0.030 A 
HETATM    5  C   UNK N   1     153.912 147.205 154.038  0.00  0.00     0.018 A 
HETATM    6  C   UNK N   1     154.490 146.149 153.322  0.00  0.00     0.017 A 
HETATM    7  C   UNK N   1     154.984 145.037 154.014  0.00  0.00     0.018 A 
HETATM    8  C   UNK N   1     154.896 144.981 155.406  0.00  0.00     0.030 A 
BRANCH   6   9
HETATM    9  C   UNK N   1     154.587 146.215 151.858  0.00  0.00     0.174 A 
HETATM   10  N   UNK N   1     154.826 147.339 151.153  0.00  0.00    -0.277 N 
HETATM   11  N   UNK N   1     154.838 146.991 149.877  0.00  0.00    -0.281 N 
ATOM     12  HN  UNK N   1     154.969 148.276 151.531  1.00  0.00     0.189 HD
HETATM   13  C   UNK N   1     154.611 145.665 149.839  0.00  0.00     0.136 A 
ATOM     14  HN  UNK N   1     154.989 147.606 149.078  1.00  0.00     0.189 HD
HETATM   15  C   UNK N   1     154.567 144.853 148.594  0.00  0.00     0.099 C 
HETATM   16  O   UNK N   1     154.454 145.190 151.050  0.00  0.00    -0.278 OA
ENDBRANCH   6   9
ENDBRANCH   1   3
BRANCH   1  17
HETATM   17  C   UNK N   1     155.284 145.409 158.419  0.00  0.00     0.162 C 
BRANCH  17  18
HETATM   18  C   UNK N   1     156.307 146.293 159.078  0.00  0.00     0.005 A 
HETATM   19  C   UNK N   1     156.464 146.590 160.417  0.00  0.00     0.118 A 
HETATM   20  N   UNK N   1     157.451 147.503 160.530  0.00  0.00    -0.311 N 
HETATM   21  N   UNK N   1     157.921 147.790 159.324  0.00  0.00    -0.300 N 
HETATM   22  H   UNK N   1     157.773 147.894 161.374  0.00  0.00     0.186 HD
HETATM   23  C   UNK N   1     157.253 147.055 158.417  0.00  0.00     0.070 A 
ATOM     24  HN  UNK N   1     158.665 148.457 159.119  1.00  0.00     0.187 HD
BRANCH  23  25
HETATM   25  C   UNK N   1     157.534 147.083 156.959  0.00  0.00     0.031 A 
HETATM   26  C   UNK N   1     158.206 146.007 156.357  0.00  0.00     0.017 A 
HETATM   27  C   UNK N   1     158.521 146.033 154.996  0.00  0.00     0.001 A 
HETATM   28  C   UNK N   1     158.155 147.130 154.217  0.00  0.00     0.003 A 
HETATM   29  C   UNK N   1     157.472 148.201 154.797  0.00  0.00     0.043 A 
HETATM   30  C   UNK N   1     157.167 148.188 156.164  0.00  0.00     0.129 A 
HETATM   31  F   UNK N   1     156.489 149.234 156.695  0.00  0.00    -0.205 F 
ENDBRANCH  23  25
ENDBRANCH  17  18
ENDBRANCH   1  17
TORSDOF 5
ENDMDL
MODEL 5
REMARK VINA RESULT:      -6.1      1.894      3.107
REMARK  5 active torsions:
REMARK  status: ('A' for Active; 'I' for Inactive)
REMARK    1  A    between atoms: C_7  and  C_8 
REMARK    2  A    between atoms: C_11  and  N_12 
REMARK    3  A    between atoms: N_12  and  C_13 
REMARK    4  A    between atoms: C_13  and  C_14 
REMARK    5  A    between atoms: C_19  and  C_20 
ROOT
HETATM    1  N   UNK N   1     166.072 159.076 154.976  0.00  0.00    -0.386 N 
HETATM    2  H   UNK N   1     166.092 159.919 154.467  0.00  0.00     0.160 HD
ENDROOT
BRANCH   1   3
HETATM    3  C   UNK N   1     166.487 157.894 154.300  0.00  0.00     0.028 A 
HETATM    4  C   UNK N   1     165.608 156.807 154.231  0.00  0.00     0.030 A 
HETATM    5  C   UNK N   1     165.971 155.643 153.545  0.00  0.00     0.018 A 
HETATM    6  C   UNK N   1     167.204 155.571 152.884  0.00  0.00     0.017 A 
HETATM    7  C   UNK N   1     168.082 156.660 152.945  0.00  0.00     0.018 A 
HETATM    8  C   UNK N   1     167.732 157.805 153.663  0.00  0.00     0.030 A 
BRANCH   6   9
HETATM    9  C   UNK N   1     167.567 154.369 152.124  0.00  0.00     0.174 A 
HETATM   10  N   UNK N   1     168.052 153.234 152.666  0.00  0.00    -0.277 N 
HETATM   11  N   UNK N   1     168.255 152.392 151.666  0.00  0.00    -0.281 N 
ATOM     12  HN  UNK N   1     168.230 153.059 153.656  1.00  0.00     0.189 HD
HETATM   13  C   UNK N   1     167.884 153.034 150.543  0.00  0.00     0.136 A 
ATOM     14  HN  UNK N   1     168.621 151.442 151.732  1.00  0.00     0.189 HD
HETATM   15  C   UNK N   1     167.925 152.441 149.181  0.00  0.00     0.099 C 
HETATM   16  O   UNK N   1     167.467 154.245 150.821  0.00  0.00    -0.278 OA
ENDBRANCH   6   9
ENDBRANCH   1   3
BRANCH   1  17
HETATM   17  C   UNK N   1     165.621 159.141 156.355  0.00  0.00     0.162 C 
BRANCH  17  18
HETATM   18  C   UNK N   1     166.673 159.323 157.414  0.00  0.00     0.005 A 
HETATM   19  C   UNK N   1     167.029 160.470 158.095  0.00  0.00     0.118 A 
HETATM   20  N   UNK N   1     168.089 160.179 158.879  0.00  0.00    -0.311 N 
HETATM   21  N   UNK N   1     168.410 158.903 158.723  0.00  0.00    -0.300 N 
HETATM   22  H   UNK N   1     168.549 160.814 159.474  0.00  0.00     0.186 HD
HETATM   23  C   UNK N   1     167.553 158.348 157.845  0.00  0.00     0.070 A 
ATOM     24  HN  UNK N   1     169.179 158.421 159.189  1.00  0.00     0.187 HD
BRANCH  23  25
HETATM   25  C   UNK N   1     167.583 156.917 157.451  0.00  0.00     0.031 A 
HETATM   26  C   UNK N   1     168.680 156.412 156.734  0.00  0.00     0.017 A 
HETATM   27  C   UNK N   1     168.707 155.080 156.314  0.00  0.00     0.001 A 
HETATM   28  C   UNK N   1     167.642 154.232 156.618  0.00  0.00     0.003 A 
HETATM   29  C   UNK N   1     166.552 154.714 157.345  0.00  0.00     0.043 A 
HETATM   30  C   UNK N   1     166.511 156.052 157.756  0.00  0.00     0.129 A 
HETATM   31  F   UNK N   1     165.448 156.487 158.474  0.00  0.00    -0.205 F 
ENDBRANCH  23  25
ENDBRANCH  17  18
ENDBRANCH   1  17
TORSDOF 5
ENDMDL
MODEL 6
REMARK VINA RESULT:      -6.0      2.899      6.431
REMARK  5 active torsions:
REMARK  status: ('A' for Active; 'I' for Inactive)
REMARK    1  A    between atoms: C_7  and  C_8 
REMARK    2  A    between atoms: C_11  and  N_12 
REMARK    3  A    between atoms: N_12  and  C_13 
REMARK    4  A    between atoms: C_13  and  C_14 
REMARK    5  A    between atoms: C_19  and  C_20 
ROOT
HETATM    1  N   UNK N   1     165.780 153.766 155.987  0.00  0.00    -0.386 N 
HETATM    2  H   UNK N   1     165.380 152.869 155.920  0.00  0.00     0.160 HD
ENDROOT
BRANCH   1   3
HETATM    3  C   UNK N   1     164.889 154.876 156.030  0.00  0.00     0.028 A 
HETATM    4  C   UNK N   1     164.678 155.529 157.250  0.00  0.00     0.030 A 
HETATM    5  C   UNK N   1     163.836 156.645 157.321  0.00  0.00     0.018 A 
HETATM    6  C   UNK N   1     163.230 157.144 156.161  0.00  0.00     0.017 A 
HETATM    7  C   UNK N   1     163.446 156.497 154.939  0.00  0.00     0.018 A 
HETATM    8  C   UNK N   1     164.256 155.361 154.879  0.00  0.00     0.030 A 
BRANCH   6   9
HETATM    9  C   UNK N   1     162.384 158.343 156.226  0.00  0.00     0.174 A 
HETATM   10  N   UNK N   1     162.818 159.571 156.574  0.00  0.00    -0.277 N 
HETATM   11  N   UNK N   1     161.768 160.374 156.515  0.00  0.00    -0.281 N 
ATOM     12  HN  UNK N   1     163.770 159.830 156.835  1.00  0.00     0.189 HD
HETATM   13  C   UNK N   1     160.726 159.616 156.127  0.00  0.00     0.136 A 
ATOM     14  HN  UNK N   1     161.752 161.373 156.722  1.00  0.00     0.189 HD
HETATM   15  C   UNK N   1     159.348 160.127 155.909  0.00  0.00     0.099 C 
HETATM   16  O   UNK N   1     161.101 158.372 155.955  0.00  0.00    -0.278 OA
ENDBRANCH   6   9
ENDBRANCH   1   3
BRANCH   1  17
HETATM   17  C   UNK N   1     167.228 153.849 156.035  0.00  0.00     0.162 C 
BRANCH  17  18
HETATM   18  C   UNK N   1     167.923 154.441 154.839  0.00  0.00     0.005 A 
HETATM   19  C   UNK N   1     168.525 153.795 153.778  0.00  0.00     0.118 A 
HETATM   20  N   UNK N   1     169.103 154.730 152.994  0.00  0.00    -0.311 N 
HETATM   21  N   UNK N   1     168.888 155.930 153.513  0.00  0.00    -0.300 N 
HETATM   22  H   UNK N   1     169.604 154.548 152.166  0.00  0.00     0.186 HD
HETATM   23  C   UNK N   1     168.156 155.788 154.634  0.00  0.00     0.070 A 
ATOM     24  HN  UNK N   1     169.222 156.813 153.129  1.00  0.00     0.187 HD
BRANCH  23  25
HETATM   25  C   UNK N   1     167.689 156.925 155.467  0.00  0.00     0.031 A 
HETATM   26  C   UNK N   1     168.078 157.010 156.814  0.00  0.00     0.017 A 
HETATM   27  C   UNK N   1     167.613 158.046 157.627  0.00  0.00     0.001 A 
HETATM   28  C   UNK N   1     166.764 159.019 157.100  0.00  0.00     0.003 A 
HETATM   29  C   UNK N   1     166.380 158.957 155.758  0.00  0.00     0.043 A 
HETATM   30  C   UNK N   1     166.830 157.913 154.942  0.00  0.00     0.129 A 
HETATM   31  F   UNK N   1     166.455 157.889 153.640  0.00  0.00    -0.205 F 
ENDBRANCH  23  25
ENDBRANCH  17  18
ENDBRANCH   1  17
TORSDOF 5
ENDMDL
MODEL 7
REMARK VINA RESULT:      -6.0     13.160     15.385
REMARK  5 active torsions:
REMARK  status: ('A' for Active; 'I' for Inactive)
REMARK    1  A    between atoms: C_7  and  C_8 
REMARK    2  A    between atoms: C_11  and  N_12 
REMARK    3  A    between atoms: N_12  and  C_13 
REMARK    4  A    between atoms: C_13  and  C_14 
REMARK    5  A    between atoms: C_19  and  C_20 
ROOT
HETATM    1  N   UNK N   1     155.906 144.058 156.078  0.00  0.00    -0.386 N 
HETATM    2  H   UNK N   1     156.113 143.117 155.875  0.00  0.00     0.160 HD
ENDROOT
BRANCH   1   3
HETATM    3  C   UNK N   1     156.676 144.692 157.093  0.00  0.00     0.028 A 
HETATM    4  C   UNK N   1     156.014 145.345 158.139  0.00  0.00     0.030 A 
HETATM    5  C   UNK N   1     156.740 145.949 159.172  0.00  0.00     0.018 A 
HETATM    6  C   UNK N   1     158.138 145.867 159.190  0.00  0.00     0.017 A 
HETATM    7  C   UNK N   1     158.802 145.208 158.150  0.00  0.00     0.018 A 
HETATM    8  C   UNK N   1     158.076 144.640 157.101  0.00  0.00     0.030 A 
BRANCH   6   9
HETATM    9  C   UNK N   1     158.899 146.459 160.298  0.00  0.00     0.174 A 
HETATM   10  N   UNK N   1     158.361 147.186 161.298  0.00  0.00    -0.277 N 
HETATM   11  N   UNK N   1     159.360 147.539 162.090  0.00  0.00    -0.281 N 
ATOM     12  HN  UNK N   1     157.375 147.420 161.419  1.00  0.00     0.189 HD
HETATM   13  C   UNK N   1     160.478 147.014 161.555  0.00  0.00     0.136 A 
ATOM     14  HN  UNK N   1     159.297 148.100 162.940  1.00  0.00     0.189 HD
HETATM   15  C   UNK N   1     161.836 147.148 162.143  0.00  0.00     0.099 C 
HETATM   16  O   UNK N   1     160.198 146.357 160.457  0.00  0.00    -0.278 OA
ENDBRANCH   6   9
ENDBRANCH   1   3
BRANCH   1  17
HETATM   17  C   UNK N   1     154.841 144.686 155.317  0.00  0.00     0.162 C 
BRANCH  17  18
HETATM   18  C   UNK N   1     155.239 145.475 154.100  0.00  0.00     0.005 A 
HETATM   19  C   UNK N   1     155.355 145.052 152.791  0.00  0.00     0.118 A 
HETATM   20  N   UNK N   1     155.835 146.080 152.060  0.00  0.00    -0.311 N 
HETATM   21  N   UNK N   1     156.022 147.127 152.849  0.00  0.00    -0.300 N 
HETATM   22  H   UNK N   1     156.015 146.056 151.092  0.00  0.00     0.186 HD
HETATM   23  C   UNK N   1     155.652 146.794 154.099  0.00  0.00     0.070 A 
ATOM     24  HN  UNK N   1     156.386 148.034 152.558  1.00  0.00     0.187 HD
BRANCH  23  25
HETATM   25  C   UNK N   1     155.688 147.732 155.251  0.00  0.00     0.031 A 
HETATM   26  C   UNK N   1     154.494 148.301 155.724  0.00  0.00     0.017 A 
HETATM   27  C   UNK N   1     154.509 149.220 156.776  0.00  0.00     0.001 A 
HETATM   28  C   UNK N   1     155.718 149.570 157.378  0.00  0.00     0.003 A 
HETATM   29  C   UNK N   1     156.911 149.000 156.930  0.00  0.00     0.043 A 
HETATM   30  C   UNK N   1     156.905 148.091 155.866  0.00  0.00     0.129 A 
HETATM   31  F   UNK N   1     158.077 147.542 155.464  0.00  0.00    -0.205 F 
ENDBRANCH  23  25
ENDBRANCH  17  18
ENDBRANCH   1  17
TORSDOF 5
ENDMDL
MODEL 8
REMARK VINA RESULT:      -6.0      2.540      3.381
REMARK  5 active torsions:
REMARK  status: ('A' for Active; 'I' for Inactive)
REMARK    1  A    between atoms: C_7  and  C_8 
REMARK    2  A    between atoms: C_11  and  N_12 
REMARK    3  A    between atoms: N_12  and  C_13 
REMARK    4  A    between atoms: C_13  and  C_14 
REMARK    5  A    between atoms: C_19  and  C_20 
ROOT
HETATM    1  N   UNK N   1     166.305 156.707 158.163  0.00  0.00    -0.386 N 
HETATM    2  H   UNK N   1     166.880 156.893 158.940  0.00  0.00     0.160 HD
ENDROOT
BRANCH   1   3
HETATM    3  C   UNK N   1     166.650 155.594 157.345  0.00  0.00     0.028 A 
HETATM    4  C   UNK N   1     168.000 155.257 157.193  0.00  0.00     0.030 A 
HETATM    5  C   UNK N   1     168.372 154.148 156.425  0.00  0.00     0.018 A 
HETATM    6  C   UNK N   1     167.392 153.339 155.835  0.00  0.00     0.017 A 
HETATM    7  C   UNK N   1     166.041 153.670 155.993  0.00  0.00     0.018 A 
HETATM    8  C   UNK N   1     165.676 154.799 156.728  0.00  0.00     0.030 A 
BRANCH   6   9
HETATM    9  C   UNK N   1     167.779 152.148 155.068  0.00  0.00     0.174 A 
HETATM   10  N   UNK N   1     168.403 152.172 153.874  0.00  0.00    -0.277 N 
HETATM   11  N   UNK N   1     168.576 150.912 153.511  0.00  0.00    -0.281 N 
ATOM     12  HN  UNK N   1     168.686 153.001 153.350  1.00  0.00     0.189 HD
HETATM   13  C   UNK N   1     168.058 150.154 154.495  0.00  0.00     0.136 A 
ATOM     14  HN  UNK N   1     169.016 150.578 152.653  1.00  0.00     0.189 HD
HETATM   15  C   UNK N   1     168.063 148.668 154.506  0.00  0.00     0.099 C 
HETATM   16  O   UNK N   1     167.566 150.909 155.446  0.00  0.00    -0.278 OA
ENDBRANCH   6   9
ENDBRANCH   1   3
BRANCH   1  17
HETATM   17  C   UNK N   1     165.174 157.592 157.943  0.00  0.00     0.162 C 
BRANCH  17  18
HETATM   18  C   UNK N   1     165.446 158.892 157.237  0.00  0.00     0.005 A 
HETATM   19  C   UNK N   1     165.408 160.177 157.740  0.00  0.00     0.118 A 
HETATM   20  N   UNK N   1     165.624 161.032 156.719  0.00  0.00    -0.311 N 
HETATM   21  N   UNK N   1     165.798 160.342 155.601  0.00  0.00    -0.300 N 
HETATM   22  H   UNK N   1     165.650 162.013 156.793  0.00  0.00     0.186 HD
HETATM   23  C   UNK N   1     165.709 159.031 155.887  0.00  0.00     0.070 A 
ATOM     24  HN  UNK N   1     165.968 160.739 154.677  1.00  0.00     0.187 HD
BRANCH  23  25
HETATM   25  C   UNK N   1     165.889 157.950 154.884  0.00  0.00     0.031 A 
HETATM   26  C   UNK N   1     167.183 157.576 154.485  0.00  0.00     0.017 A 
HETATM   27  C   UNK N   1     167.374 156.594 153.511  0.00  0.00     0.001 A 
HETATM   28  C   UNK N   1     166.273 155.962 152.933  0.00  0.00     0.003 A 
HETATM   29  C   UNK N   1     164.981 156.311 153.331  0.00  0.00     0.043 A 
HETATM   30  C   UNK N   1     164.782 157.305 154.296  0.00  0.00     0.129 A 
HETATM   31  F   UNK N   1     163.517 157.610 154.674  0.00  0.00    -0.205 F 
ENDBRANCH  23  25
ENDBRANCH  17  18
ENDBRANCH   1  17
TORSDOF 5
ENDMDL
MODEL 9
REMARK VINA RESULT:      -5.8     13.756     14.734
REMARK  5 active torsions:
REMARK  status: ('A' for Active; 'I' for Inactive)
REMARK    1  A    between atoms: C_7  and  C_8 
REMARK    2  A    between atoms: C_11  and  N_12 
REMARK    3  A    between atoms: N_12  and  C_13 
REMARK    4  A    between atoms: C_13  and  C_14 
REMARK    5  A    between atoms: C_19  and  C_20 
ROOT
HETATM    1  N   UNK N   1     158.642 145.178 157.837  0.00  0.00    -0.386 N 
HETATM    2  H   UNK N   1     158.935 144.268 158.071  0.00  0.00     0.160 HD
ENDROOT
BRANCH   1   3
HETATM    3  C   UNK N   1     158.001 145.354 156.578  0.00  0.00     0.028 A 
HETATM    4  C   UNK N   1     158.264 146.514 155.839  0.00  0.00     0.030 A 
HETATM    5  C   UNK N   1     157.678 146.703 154.583  0.00  0.00     0.018 A 
HETATM    6  C   UNK N   1     156.853 145.712 154.035  0.00  0.00     0.017 A 
HETATM    7  C   UNK N   1     156.595 144.548 154.768  0.00  0.00     0.018 A 
HETATM    8  C   UNK N   1     157.151 144.381 156.038  0.00  0.00     0.030 A 
BRANCH   6   9
HETATM    9  C   UNK N   1     156.275 145.888 152.696  0.00  0.00     0.174 A 
HETATM   10  N   UNK N   1     155.342 146.807 152.377  0.00  0.00    -0.277 N 
HETATM   11  N   UNK N   1     155.080 146.650 151.090  0.00  0.00    -0.281 N 
ATOM     12  HN  UNK N   1     154.918 147.490 153.006  1.00  0.00     0.189 HD
HETATM   13  C   UNK N   1     155.863 145.644 150.659  0.00  0.00     0.136 A 
ATOM     14  HN  UNK N   1     154.414 147.185 150.533  1.00  0.00     0.189 HD
HETATM   15  C   UNK N   1     155.906 145.151 149.257  0.00  0.00     0.099 C 
HETATM   16  O   UNK N   1     156.592 145.175 151.641  0.00  0.00    -0.278 OA
ENDBRANCH   6   9
ENDBRANCH   1   3
BRANCH   1  17
HETATM   17  C   UNK N   1     158.899 146.230 158.803  0.00  0.00     0.162 C 
BRANCH  17  18
HETATM   18  C   UNK N   1     157.900 146.401 159.915  0.00  0.00     0.005 A 
HETATM   19  C   UNK N   1     157.958 145.935 161.213  0.00  0.00     0.118 A 
HETATM   20  N   UNK N   1     156.794 146.245 161.822  0.00  0.00    -0.311 N 
HETATM   21  N   UNK N   1     156.011 146.886 160.966  0.00  0.00    -0.300 N 
HETATM   22  H   UNK N   1     156.563 146.030 162.754  0.00  0.00     0.186 HD
HETATM   23  C   UNK N   1     156.665 147.011 159.796  0.00  0.00     0.070 A 
ATOM     24  HN  UNK N   1     155.070 147.227 161.161  1.00  0.00     0.187 HD
BRANCH  23  25
HETATM   25  C   UNK N   1     156.112 147.711 158.609  0.00  0.00     0.031 A 
HETATM   26  C   UNK N   1     156.503 149.032 158.333  0.00  0.00     0.017 A 
HETATM   27  C   UNK N   1     155.960 149.725 157.248  0.00  0.00     0.001 A 
HETATM   28  C   UNK N   1     155.031 149.100 156.416  0.00  0.00     0.003 A 
HETATM   29  C   UNK N   1     154.645 147.782 156.668  0.00  0.00     0.043 A 
HETATM   30  C   UNK N   1     155.173 147.087 157.763  0.00  0.00     0.129 A 
HETATM   31  F   UNK N   1     154.792 145.803 157.972  0.00  0.00    -0.205 F 
ENDBRANCH  23  25
ENDBRANCH  17  18
ENDBRANCH   1  17
TORSDOF 5
ENDMDL
