MODEL 1
REMARK VINA RESULT:      -5.5      0.000      0.000
REMARK  7 active torsions:
REMARK  status: ('A' for Active; 'I' for Inactive)
REMARK    1  A    between atoms: C_7  and  C_8 
REMARK    2  A    between atoms: C_8  and  C_9 
REMARK       I    between atoms: C_9  and  N_11 
REMARK    3  A    between atoms: N_11  and  C_12 
REMARK    4  A    between atoms: C_12  and  C_13 
REMARK    5  A    between atoms: C_13  and  N_14 
REMARK       I    between atoms: N_14  and  C_15 
REMARK    6  A    between atoms: N_14  and  C_24 
REMARK    7  A    between atoms: C_17  and  C_15 
ROOT
HETATM    1  C   UNK N   1     158.466 146.584 160.936  0.00  0.00     0.142 C 
ENDROOT
BRANCH   1   2
HETATM    2  N   UNK N   1     157.078 146.922 160.739  0.00  0.00    -0.359 N 
HETATM    3  C   UNK N   1     156.091 146.044 161.036  0.00  0.00     0.225 C 
HETATM    4  O   UNK N   1     156.368 144.926 161.449  0.00  0.00    -0.273 OA
HETATM    5  H   UNK N   1     156.843 147.809 160.383  0.00  0.00     0.162 HD
BRANCH   3   6
HETATM    6  C   UNK N   1     154.655 146.468 160.855  0.00  0.00     0.188 C 
BRANCH   6   7
HETATM    7  C   UNK N   1     154.437 147.715 160.044  0.00  0.00     0.148 A 
HETATM    8  N   UNK N   1     153.681 148.751 160.455  0.00  0.00    -0.281 N 
HETATM    9  N   UNK N   1     153.724 149.658 159.491  0.00  0.00    -0.282 N 
ATOM     10  HN  UNK N   1     153.173 148.824 161.337  1.00  0.00     0.189 HD
HETATM   11  C   UNK N   1     154.507 149.150 158.521  0.00  0.00     0.136 A 
ATOM     12  HN  UNK N   1     153.257 150.565 159.485  1.00  0.00     0.189 HD
HETATM   13  C   UNK N   1     154.832 149.846 157.249  0.00  0.00     0.099 C 
HETATM   14  O   UNK N   1     154.942 147.963 158.858  0.00  0.00    -0.282 OA
ENDBRANCH   6   7
ENDBRANCH   3   6
ENDBRANCH   1   2
BRANCH   1  15
HETATM   15  C   UNK N   1     159.198 146.586 159.600  0.00  0.00     0.146 C 
BRANCH  15  16
HETATM   16  N   UNK N   1     158.503 145.913 158.497  0.00  0.00    -0.345 N 
HETATM   17  C   UNK N   1     157.977 146.726 157.508  0.00  0.00     0.225 C 
HETATM   18  O   UNK N   1     158.058 147.940 157.648  0.00  0.00    -0.273 OA
BRANCH  17  19
HETATM   19  C   UNK N   1     157.353 146.257 156.189  0.00  0.00     0.086 C 
HETATM   20  C   UNK N   1     156.145 146.988 155.569  0.00  0.00     0.023 C 
HETATM   21  C   UNK N   1     156.612 147.289 154.133  0.00  0.00     0.009 C 
HETATM   22  C   UNK N   1     156.750 145.966 153.446  0.00  0.00    -0.026 C 
HETATM   23  C   UNK N   1     158.085 147.551 154.398  0.00  0.00     0.018 C 
HETATM   24  C   UNK N   1     157.783 145.333 153.978  0.00  0.00    -0.025 C 
HETATM   25  C   UNK N   1     158.376 146.211 155.039  0.00  0.00     0.021 C 
ENDBRANCH  17  19
BRANCH  16  26
HETATM   26  C   UNK N   1     158.487 144.451 158.412  0.00  0.00     0.087 A 
HETATM   27  C   UNK N   1     159.737 143.888 157.729  0.00  0.00     0.027 A 
HETATM   28  C   UNK N   1     159.645 143.863 159.222  0.00  0.00     0.027 A 
ENDBRANCH  16  26
ENDBRANCH  15  16
ENDBRANCH   1  15
TORSDOF 7
ENDMDL
MODEL 2
REMARK VINA RESULT:      -5.5     13.178     15.416
REMARK  7 active torsions:
REMARK  status: ('A' for Active; 'I' for Inactive)
REMARK    1  A    between atoms: C_7  and  C_8 
REMARK    2  A    between atoms: C_8  and  C_9 
REMARK       I    between atoms: C_9  and  N_11 
REMARK    3  A    between atoms: N_11  and  C_12 
REMARK    4  A    between atoms: C_12  and  C_13 
REMARK    5  A    between atoms: C_13  and  N_14 
REMARK       I    between atoms: N_14  and  C_15 
REMARK    6  A    between atoms: N_14  and  C_24 
REMARK    7  A    between atoms: C_17  and  C_15 
ROOT
HETATM    1  C   UNK N   1     168.150 154.839 156.720  0.00  0.00     0.142 C 
ENDROOT
BRANCH   1   2
HETATM    2  N   UNK N   1     168.654 153.794 155.863  0.00  0.00    -0.359 N 
HETATM    3  C   UNK N   1     167.851 152.796 155.424  0.00  0.00     0.225 C 
HETATM    4  O   UNK N   1     166.682 152.748 155.779  0.00  0.00    -0.273 OA
HETATM    5  H   UNK N   1     169.600 153.807 155.592  0.00  0.00     0.162 HD
BRANCH   3   6
HETATM    6  C   UNK N   1     168.420 151.756 154.491  0.00  0.00     0.188 C 
BRANCH   6   7
HETATM    7  C   UNK N   1     168.153 150.324 154.864  0.00  0.00     0.148 A 
HETATM    8  N   UNK N   1     167.809 149.373 153.975  0.00  0.00    -0.281 N 
HETATM    9  N   UNK N   1     167.660 148.249 154.660  0.00  0.00    -0.282 N 
ATOM     10  HN  UNK N   1     167.687 149.493 152.969  1.00  0.00     0.189 HD
HETATM   11  C   UNK N   1     167.920 148.547 155.946  0.00  0.00     0.136 A 
ATOM     12  HN  UNK N   1     167.401 147.336 154.285  1.00  0.00     0.189 HD
HETATM   13  C   UNK N   1     167.874 147.570 157.064  0.00  0.00     0.099 C 
HETATM   14  O   UNK N   1     168.221 149.815 156.071  0.00  0.00    -0.282 OA
ENDBRANCH   6   7
ENDBRANCH   3   6
ENDBRANCH   1   2
BRANCH   1  15
HETATM   15  C   UNK N   1     168.320 156.195 156.047  0.00  0.00     0.146 C 
BRANCH  15  16
HETATM   16  N   UNK N   1     167.231 157.153 156.273  0.00  0.00    -0.345 N 
HETATM   17  C   UNK N   1     167.397 158.043 157.320  0.00  0.00     0.225 C 
HETATM   18  O   UNK N   1     168.391 157.932 158.026  0.00  0.00    -0.273 OA
BRANCH  17  19
HETATM   19  C   UNK N   1     166.485 159.228 157.651  0.00  0.00     0.086 C 
HETATM   20  C   UNK N   1     166.174 159.617 159.111  0.00  0.00     0.023 C 
HETATM   21  C   UNK N   1     166.534 161.112 159.164  0.00  0.00     0.009 C 
HETATM   22  C   UNK N   1     165.551 161.818 158.282  0.00  0.00    -0.026 C 
HETATM   23  C   UNK N   1     167.720 161.119 158.215  0.00  0.00     0.018 C 
HETATM   24  C   UNK N   1     165.810 161.484 157.029  0.00  0.00    -0.025 C 
HETATM   25  C   UNK N   1     166.979 160.545 157.025  0.00  0.00     0.021 C 
ENDBRANCH  17  19
BRANCH  16  26
HETATM   26  C   UNK N   1     166.097 157.219 155.349  0.00  0.00     0.087 A 
HETATM   27  C   UNK N   1     166.363 158.140 154.155  0.00  0.00     0.027 A 
HETATM   28  C   UNK N   1     166.497 156.660 153.982  0.00  0.00     0.027 A 
ENDBRANCH  16  26
ENDBRANCH  15  16
ENDBRANCH   1  15
TORSDOF 7
ENDMDL
MODEL 3
REMARK VINA RESULT:      -5.4      3.279      5.345
REMARK  7 active torsions:
REMARK  status: ('A' for Active; 'I' for Inactive)
REMARK    1  A    between atoms: C_7  and  C_8 
REMARK    2  A    between atoms: C_8  and  C_9 
REMARK       I    between atoms: C_9  and  N_11 
REMARK    3  A    between atoms: N_11  and  C_12 
REMARK    4  A    between atoms: C_12  and  C_13 
REMARK    5  A    between atoms: C_13  and  N_14 
REMARK       I    between atoms: N_14  and  C_15 
REMARK    6  A    between atoms: N_14  and  C_24 
REMARK    7  A    between atoms: C_17  and  C_15 
ROOT
HETATM    1  C   UNK N   1     159.085 144.930 160.268  0.00  0.00     0.142 C 
ENDROOT
BRANCH   1   2
HETATM    2  N   UNK N   1     160.104 145.291 161.221  0.00  0.00    -0.359 N 
HETATM    3  C   UNK N   1     159.817 145.437 162.537  0.00  0.00     0.225 C 
HETATM    4  O   UNK N   1     158.669 145.294 162.933  0.00  0.00    -0.273 OA
HETATM    5  H   UNK N   1     161.027 145.435 160.910  0.00  0.00     0.162 HD
BRANCH   3   6
HETATM    6  C   UNK N   1     160.932 145.769 163.497  0.00  0.00     0.188 C 
BRANCH   6   7
HETATM    7  C   UNK N   1     160.685 146.939 164.409  0.00  0.00     0.148 A 
HETATM    8  N   UNK N   1     159.530 147.139 165.071  0.00  0.00    -0.281 N 
HETATM    9  N   UNK N   1     159.680 148.254 165.769  0.00  0.00    -0.282 N 
ATOM     10  HN  UNK N   1     158.699 146.547 165.042  1.00  0.00     0.189 HD
HETATM   11  C   UNK N   1     160.924 148.701 165.514  0.00  0.00     0.136 A 
ATOM     12  HN  UNK N   1     158.990 148.689 166.382  1.00  0.00     0.189 HD
HETATM   13  C   UNK N   1     161.515 149.932 166.100  0.00  0.00     0.099 C 
HETATM   14  O   UNK N   1     161.538 147.898 164.683  0.00  0.00    -0.282 OA
ENDBRANCH   6   7
ENDBRANCH   3   6
ENDBRANCH   1   2
BRANCH   1  15
HETATM   15  C   UNK N   1     159.147 145.857 159.060  0.00  0.00     0.146 C 
BRANCH  15  16
HETATM   16  N   UNK N   1     157.893 146.003 158.311  0.00  0.00    -0.345 N 
HETATM   17  C   UNK N   1     157.089 147.076 158.653  0.00  0.00     0.225 C 
HETATM   18  O   UNK N   1     157.431 147.783 159.593  0.00  0.00    -0.273 OA
BRANCH  17  19
HETATM   19  C   UNK N   1     155.824 147.528 157.917  0.00  0.00     0.086 C 
HETATM   20  C   UNK N   1     154.751 148.386 158.618  0.00  0.00     0.023 C 
HETATM   21  C   UNK N   1     154.577 149.583 157.667  0.00  0.00     0.009 C 
HETATM   22  C   UNK N   1     153.978 149.041 156.407  0.00  0.00    -0.026 C 
HETATM   23  C   UNK N   1     156.010 149.729 157.182  0.00  0.00     0.018 C 
HETATM   24  C   UNK N   1     154.893 148.300 155.804  0.00  0.00    -0.025 C 
HETATM   25  C   UNK N   1     156.140 148.322 156.637  0.00  0.00     0.021 C 
ENDBRANCH  17  19
BRANCH  16  26
HETATM   26  C   UNK N   1     157.594 145.116 157.185  0.00  0.00     0.087 A 
HETATM   27  C   UNK N   1     158.302 145.542 155.895  0.00  0.00     0.027 A 
HETATM   28  C   UNK N   1     158.871 144.421 156.706  0.00  0.00     0.027 A 
ENDBRANCH  16  26
ENDBRANCH  15  16
ENDBRANCH   1  15
TORSDOF 7
ENDMDL
MODEL 4
REMARK VINA RESULT:      -5.4     12.705     14.118
REMARK  7 active torsions:
REMARK  status: ('A' for Active; 'I' for Inactive)
REMARK    1  A    between atoms: C_7  and  C_8 
REMARK    2  A    between atoms: C_8  and  C_9 
REMARK       I    between atoms: C_9  and  N_11 
REMARK    3  A    between atoms: N_11  and  C_12 
REMARK    4  A    between atoms: C_12  and  C_13 
REMARK    5  A    between atoms: C_13  and  N_14 
REMARK       I    between atoms: N_14  and  C_15 
REMARK    6  A    between atoms: N_14  and  C_24 
REMARK    7  A    between atoms: C_17  and  C_15 
ROOT
HETATM    1  C   UNK N   1     164.980 160.968 157.410  0.00  0.00     0.142 C 
ENDROOT
BRANCH   1   2
HETATM    2  N   UNK N   1     163.840 160.360 156.771  0.00  0.00    -0.359 N 
HETATM    3  C   UNK N   1     163.047 159.483 157.432  0.00  0.00     0.225 C 
HETATM    4  O   UNK N   1     163.311 159.165 158.583  0.00  0.00    -0.273 OA
HETATM    5  H   UNK N   1     163.632 160.588 155.837  0.00  0.00     0.162 HD
BRANCH   3   6
HETATM    6  C   UNK N   1     161.839 158.915 156.729  0.00  0.00     0.188 C 
BRANCH   6   7
HETATM    7  C   UNK N   1     161.829 157.423 156.546  0.00  0.00     0.148 A 
HETATM    8  N   UNK N   1     160.773 156.641 156.843  0.00  0.00    -0.281 N 
HETATM    9  N   UNK N   1     161.126 155.399 156.552  0.00  0.00    -0.282 N 
ATOM     10  HN  UNK N   1     159.875 156.947 157.219  1.00  0.00     0.189 HD
HETATM   11  C   UNK N   1     162.386 155.459 156.083  0.00  0.00     0.136 A 
ATOM     12  HN  UNK N   1     160.554 154.561 156.660  1.00  0.00     0.189 HD
HETATM   13  C   UNK N   1     163.175 154.283 155.631  0.00  0.00     0.099 C 
HETATM   14  O   UNK N   1     162.816 156.695 156.080  0.00  0.00    -0.282 OA
ENDBRANCH   6   7
ENDBRANCH   3   6
ENDBRANCH   1   2
BRANCH   1  15
HETATM   15  C   UNK N   1     166.269 160.425 156.805  0.00  0.00     0.146 C 
BRANCH  15  16
HETATM   16  N   UNK N   1     166.338 158.965 156.670  0.00  0.00    -0.345 N 
HETATM   17  C   UNK N   1     166.142 158.450 155.401  0.00  0.00     0.225 C 
HETATM   18  O   UNK N   1     165.856 159.224 154.496  0.00  0.00    -0.273 OA
BRANCH  17  19
HETATM   19  C   UNK N   1     166.321 156.988 154.981  0.00  0.00     0.086 C 
HETATM   20  C   UNK N   1     165.591 156.411 153.751  0.00  0.00     0.023 C 
HETATM   21  C   UNK N   1     166.729 155.789 152.922  0.00  0.00     0.009 C 
HETATM   22  C   UNK N   1     167.258 154.640 153.722  0.00  0.00    -0.026 C 
HETATM   23  C   UNK N   1     167.833 156.789 153.222  0.00  0.00     0.018 C 
HETATM   24  C   UNK N   1     167.882 155.129 154.781  0.00  0.00    -0.025 C 
HETATM   25  C   UNK N   1     167.796 156.625 154.727  0.00  0.00     0.021 C 
ENDBRANCH  17  19
BRANCH  16  26
HETATM   26  C   UNK N   1     166.715 158.131 157.814  0.00  0.00     0.087 A 
HETATM   27  C   UNK N   1     168.232 158.036 157.997  0.00  0.00     0.027 A 
HETATM   28  C   UNK N   1     167.449 158.972 158.861  0.00  0.00     0.027 A 
ENDBRANCH  16  26
ENDBRANCH  15  16
ENDBRANCH   1  15
TORSDOF 7
ENDMDL
MODEL 5
REMARK VINA RESULT:      -5.4     13.884     16.244
REMARK  7 active torsions:
REMARK  status: ('A' for Active; 'I' for Inactive)
REMARK    1  A    between atoms: C_7  and  C_8 
REMARK    2  A    between atoms: C_8  and  C_9 
REMARK       I    between atoms: C_9  and  N_11 
REMARK    3  A    between atoms: N_11  and  C_12 
REMARK    4  A    between atoms: C_12  and  C_13 
REMARK    5  A    between atoms: C_13  and  N_14 
REMARK       I    between atoms: N_14  and  C_15 
REMARK    6  A    between atoms: N_14  and  C_24 
REMARK    7  A    between atoms: C_17  and  C_15 
ROOT
HETATM    1  C   UNK N   1     167.130 157.598 153.706  0.00  0.00     0.142 C 
ENDROOT
BRANCH   1   2
HETATM    2  N   UNK N   1     167.307 156.195 153.423  0.00  0.00    -0.359 N 
HETATM    3  C   UNK N   1     168.541 155.639 153.363  0.00  0.00     0.225 C 
HETATM    4  O   UNK N   1     169.535 156.335 153.518  0.00  0.00    -0.273 OA
HETATM    5  H   UNK N   1     166.516 155.630 153.272  0.00  0.00     0.162 HD
BRANCH   3   6
HETATM    6  C   UNK N   1     168.664 154.158 153.112  0.00  0.00     0.188 C 
BRANCH   6   7
HETATM    7  C   UNK N   1     168.058 153.657 151.830  0.00  0.00     0.148 A 
HETATM    8  N   UNK N   1     168.117 152.374 151.426  0.00  0.00    -0.281 N 
HETATM    9  N   UNK N   1     167.479 152.310 150.268  0.00  0.00    -0.282 N 
ATOM     10  HN  UNK N   1     168.568 151.601 151.916  1.00  0.00     0.189 HD
HETATM   11  C   UNK N   1     167.045 153.556 150.001  0.00  0.00     0.136 A 
ATOM     12  HN  UNK N   1     167.341 151.480 149.692  1.00  0.00     0.189 HD
HETATM   13  C   UNK N   1     166.271 153.938 148.791  0.00  0.00     0.099 C 
HETATM   14  O   UNK N   1     167.399 154.379 150.954  0.00  0.00    -0.282 OA
ENDBRANCH   6   7
ENDBRANCH   3   6
ENDBRANCH   1   2
BRANCH   1  15
HETATM   15  C   UNK N   1     165.888 157.806 154.562  0.00  0.00     0.146 C 
BRANCH  15  16
HETATM   16  N   UNK N   1     166.138 158.072 155.984  0.00  0.00    -0.345 N 
HETATM   17  C   UNK N   1     166.091 159.395 156.385  0.00  0.00     0.225 C 
HETATM   18  O   UNK N   1     165.919 160.256 155.531  0.00  0.00    -0.273 OA
BRANCH  17  19
HETATM   19  C   UNK N   1     166.159 159.905 157.828  0.00  0.00     0.086 C 
HETATM   20  C   UNK N   1     166.847 161.242 158.175  0.00  0.00     0.023 C 
HETATM   21  C   UNK N   1     165.769 161.999 158.970  0.00  0.00     0.009 C 
HETATM   22  C   UNK N   1     165.572 161.242 160.246  0.00  0.00    -0.026 C 
HETATM   23  C   UNK N   1     164.530 161.517 158.236  0.00  0.00     0.018 C 
HETATM   24  C   UNK N   1     164.986 160.092 159.954  0.00  0.00    -0.025 C 
HETATM   25  C   UNK N   1     164.767 160.040 158.471  0.00  0.00     0.021 C 
ENDBRANCH  17  19
BRANCH  16  26
HETATM   26  C   UNK N   1     166.306 156.964 156.927  0.00  0.00     0.087 A 
HETATM   27  C   UNK N   1     164.977 156.494 157.526  0.00  0.00     0.027 A 
HETATM   28  C   UNK N   1     165.591 155.715 156.407  0.00  0.00     0.027 A 
ENDBRANCH  16  26
ENDBRANCH  15  16
ENDBRANCH   1  15
TORSDOF 7
ENDMDL
MODEL 6
REMARK VINA RESULT:      -5.3     13.862     16.058
REMARK  7 active torsions:
REMARK  status: ('A' for Active; 'I' for Inactive)
REMARK    1  A    between atoms: C_7  and  C_8 
REMARK    2  A    between atoms: C_8  and  C_9 
REMARK       I    between atoms: C_9  and  N_11 
REMARK    3  A    between atoms: N_11  and  C_12 
REMARK    4  A    between atoms: C_12  and  C_13 
REMARK    5  A    between atoms: C_13  and  N_14 
REMARK       I    between atoms: N_14  and  C_15 
REMARK    6  A    between atoms: N_14  and  C_24 
REMARK    7  A    between atoms: C_17  and  C_15 
ROOT
HETATM    1  C   UNK N   1     168.534 154.860 156.533  0.00  0.00     0.142 C 
ENDROOT
BRANCH   1   2
HETATM    2  N   UNK N   1     169.081 153.972 155.537  0.00  0.00    -0.359 N 
HETATM    3  C   UNK N   1     168.280 153.196 154.770  0.00  0.00     0.225 C 
HETATM    4  O   UNK N   1     167.068 153.214 154.936  0.00  0.00    -0.273 OA
HETATM    5  H   UNK N   1     170.057 153.930 155.412  0.00  0.00     0.162 HD
BRANCH   3   6
HETATM    6  C   UNK N   1     168.903 152.321 153.712  0.00  0.00     0.188 C 
BRANCH   6   7
HETATM    7  C   UNK N   1     168.421 152.548 152.306  0.00  0.00     0.148 A 
HETATM    8  N   UNK N   1     168.406 151.592 151.357  0.00  0.00    -0.281 N 
HETATM    9  N   UNK N   1     167.920 152.152 150.261  0.00  0.00    -0.282 N 
ATOM     10  HN  UNK N   1     168.710 150.624 151.463  1.00  0.00     0.189 HD
HETATM   11  C   UNK N   1     167.650 153.433 150.572  0.00  0.00     0.136 A 
ATOM     12  HN  UNK N   1     167.776 151.701 149.357  1.00  0.00     0.189 HD
HETATM   13  C   UNK N   1     167.080 154.429 149.628  0.00  0.00     0.099 C 
HETATM   14  O   UNK N   1     167.956 153.676 151.821  0.00  0.00    -0.282 OA
ENDBRANCH   6   7
ENDBRANCH   3   6
ENDBRANCH   1   2
BRANCH   1  15
HETATM   15  C   UNK N   1     168.656 156.306 156.067  0.00  0.00     0.146 C 
BRANCH  15  16
HETATM   16  N   UNK N   1     167.498 157.161 156.354  0.00  0.00    -0.345 N 
HETATM   17  C   UNK N   1     167.620 158.030 157.424  0.00  0.00     0.225 C 
HETATM   18  O   UNK N   1     168.641 157.983 158.100  0.00  0.00    -0.273 OA
BRANCH  17  19
HETATM   19  C   UNK N   1     166.622 159.123 157.819  0.00  0.00     0.086 C 
HETATM   20  C   UNK N   1     166.382 159.495 159.297  0.00  0.00     0.023 C 
HETATM   21  C   UNK N   1     166.596 161.018 159.319  0.00  0.00     0.009 C 
HETATM   22  C   UNK N   1     165.486 161.615 158.511  0.00  0.00    -0.026 C 
HETATM   23  C   UNK N   1     167.703 161.132 158.285  0.00  0.00     0.018 C 
HETATM   24  C   UNK N   1     165.685 161.296 157.242  0.00  0.00    -0.025 C 
HETATM   25  C   UNK N   1     166.937 160.476 157.155  0.00  0.00     0.021 C 
ENDBRANCH  17  19
BRANCH  16  26
HETATM   26  C   UNK N   1     166.335 157.158 155.465  0.00  0.00     0.087 A 
HETATM   27  C   UNK N   1     166.472 158.160 154.314  0.00  0.00     0.027 A 
HETATM   28  C   UNK N   1     166.746 156.712 154.060  0.00  0.00     0.027 A 
ENDBRANCH  16  26
ENDBRANCH  15  16
ENDBRANCH   1  15
TORSDOF 7
ENDMDL
MODEL 7
REMARK VINA RESULT:      -5.2     11.818     14.311
REMARK  7 active torsions:
REMARK  status: ('A' for Active; 'I' for Inactive)
REMARK    1  A    between atoms: C_7  and  C_8 
REMARK    2  A    between atoms: C_8  and  C_9 
REMARK       I    between atoms: C_9  and  N_11 
REMARK    3  A    between atoms: N_11  and  C_12 
REMARK    4  A    between atoms: C_12  and  C_13 
REMARK    5  A    between atoms: C_13  and  N_14 
REMARK       I    between atoms: N_14  and  C_15 
REMARK    6  A    between atoms: N_14  and  C_24 
REMARK    7  A    between atoms: C_17  and  C_15 
ROOT
HETATM    1  C   UNK N   1     168.432 152.021 154.982  0.00  0.00     0.142 C 
ENDROOT
BRANCH   1   2
HETATM    2  N   UNK N   1     168.376 151.612 153.600  0.00  0.00    -0.359 N 
HETATM    3  C   UNK N   1     169.471 151.137 152.962  0.00  0.00     0.225 C 
HETATM    4  O   UNK N   1     170.544 151.078 153.546  0.00  0.00    -0.273 OA
HETATM    5  H   UNK N   1     167.524 151.679 153.112  0.00  0.00     0.162 HD
BRANCH   3   6
HETATM    6  C   UNK N   1     169.343 150.678 151.531  0.00  0.00     0.188 C 
BRANCH   6   7
HETATM    7  C   UNK N   1     168.632 151.622 150.601  0.00  0.00     0.148 A 
HETATM    8  N   UNK N   1     168.549 151.439 149.270  0.00  0.00    -0.281 N 
HETATM    9  N   UNK N   1     167.854 152.458 148.788  0.00  0.00    -0.282 N 
ATOM     10  HN  UNK N   1     168.946 150.666 148.735  1.00  0.00     0.189 HD
HETATM   11  C   UNK N   1     167.530 153.232 149.841  0.00  0.00     0.136 A 
ATOM     12  HN  UNK N   1     167.610 152.624 147.812  1.00  0.00     0.189 HD
HETATM   13  C   UNK N   1     166.739 154.487 149.753  0.00  0.00     0.099 C 
HETATM   14  O   UNK N   1     168.005 152.722 150.949  0.00  0.00    -0.282 OA
ENDBRANCH   6   7
ENDBRANCH   3   6
ENDBRANCH   1   2
BRANCH   1  15
HETATM   15  C   UNK N   1     168.397 153.542 155.078  0.00  0.00     0.146 C 
BRANCH  15  16
HETATM   16  N   UNK N   1     167.124 154.169 154.702  0.00  0.00    -0.345 N 
HETATM   17  C   UNK N   1     166.091 154.075 155.618  0.00  0.00     0.225 C 
HETATM   18  O   UNK N   1     166.276 153.423 156.639  0.00  0.00    -0.273 OA
BRANCH  17  19
HETATM   19  C   UNK N   1     164.734 154.778 155.525  0.00  0.00     0.086 C 
HETATM   20  C   UNK N   1     163.467 154.162 156.154  0.00  0.00     0.023 C 
HETATM   21  C   UNK N   1     162.920 155.300 157.034  0.00  0.00     0.009 C 
HETATM   22  C   UNK N   1     162.486 156.387 156.102  0.00  0.00    -0.026 C 
HETATM   23  C   UNK N   1     164.231 155.916 157.492  0.00  0.00     0.018 C 
HETATM   24  C   UNK N   1     163.569 156.916 155.556  0.00  0.00    -0.025 C 
HETATM   25  C   UNK N   1     164.768 156.203 156.106  0.00  0.00     0.021 C 
ENDBRANCH  17  19
BRANCH  16  26
HETATM   26  C   UNK N   1     167.019 154.950 153.467  0.00  0.00     0.087 A 
HETATM   27  C   UNK N   1     167.412 156.417 153.664  0.00  0.00     0.027 A 
HETATM   28  C   UNK N   1     168.397 155.471 153.054  0.00  0.00     0.027 A 
ENDBRANCH  16  26
ENDBRANCH  15  16
ENDBRANCH   1  15
TORSDOF 7
ENDMDL
MODEL 8
REMARK VINA RESULT:      -5.2      3.463      5.379
REMARK  7 active torsions:
REMARK  status: ('A' for Active; 'I' for Inactive)
REMARK    1  A    between atoms: C_7  and  C_8 
REMARK    2  A    between atoms: C_8  and  C_9 
REMARK       I    between atoms: C_9  and  N_11 
REMARK    3  A    between atoms: N_11  and  C_12 
REMARK    4  A    between atoms: C_12  and  C_13 
REMARK    5  A    between atoms: C_13  and  N_14 
REMARK       I    between atoms: N_14  and  C_15 
REMARK    6  A    between atoms: N_14  and  C_24 
REMARK    7  A    between atoms: C_17  and  C_15 
ROOT
HETATM    1  C   UNK N   1     159.074 146.016 162.010  0.00  0.00     0.142 C 
ENDROOT
BRANCH   1   2
HETATM    2  N   UNK N   1     158.638 145.795 163.366  0.00  0.00    -0.359 N 
HETATM    3  C   UNK N   1     159.454 145.223 164.284  0.00  0.00     0.225 C 
HETATM    4  O   UNK N   1     160.574 144.853 163.961  0.00  0.00    -0.273 OA
HETATM    5  H   UNK N   1     157.729 146.066 163.631  0.00  0.00     0.162 HD
BRANCH   3   6
HETATM    6  C   UNK N   1     158.962 145.060 165.700  0.00  0.00     0.188 C 
BRANCH   6   7
HETATM    7  C   UNK N   1     157.893 146.024 166.138  0.00  0.00     0.148 A 
HETATM    8  N   UNK N   1     158.151 147.232 166.673  0.00  0.00    -0.281 N 
HETATM    9  N   UNK N   1     156.979 147.792 166.929  0.00  0.00    -0.282 N 
ATOM     10  HN  UNK N   1     159.071 147.639 166.848  1.00  0.00     0.189 HD
HETATM   11  C   UNK N   1     156.040 146.910 166.540  0.00  0.00     0.136 A 
ATOM     12  HN  UNK N   1     156.819 148.712 167.339  1.00  0.00     0.189 HD
HETATM   13  C   UNK N   1     154.575 147.137 166.643  0.00  0.00     0.099 C 
HETATM   14  O   UNK N   1     156.598 145.829 166.056  0.00  0.00    -0.282 OA
ENDBRANCH   6   7
ENDBRANCH   3   6
ENDBRANCH   1   2
BRANCH   1  15
HETATM   15  C   UNK N   1     158.075 145.408 161.034  0.00  0.00     0.146 C 
BRANCH  15  16
HETATM   16  N   UNK N   1     156.988 146.297 160.606  0.00  0.00    -0.345 N 
HETATM   17  C   UNK N   1     157.242 147.103 159.510  0.00  0.00     0.225 C 
HETATM   18  O   UNK N   1     158.363 147.079 159.017  0.00  0.00    -0.273 OA
BRANCH  17  19
HETATM   19  C   UNK N   1     156.224 147.989 158.785  0.00  0.00     0.086 C 
HETATM   20  C   UNK N   1     156.613 149.381 158.245  0.00  0.00     0.023 C 
HETATM   21  C   UNK N   1     156.178 149.322 156.770  0.00  0.00     0.009 C 
HETATM   22  C   UNK N   1     154.684 149.232 156.770  0.00  0.00    -0.026 C 
HETATM   23  C   UNK N   1     156.484 147.864 156.475  0.00  0.00     0.018 C 
HETATM   24  C   UNK N   1     154.345 148.042 157.237  0.00  0.00    -0.025 C 
HETATM   25  C   UNK N   1     155.601 147.290 157.563  0.00  0.00     0.021 C 
ENDBRANCH  17  19
BRANCH  16  26
HETATM   26  C   UNK N   1     155.675 146.226 161.250  0.00  0.00     0.087 A 
HETATM   27  C   UNK N   1     154.760 145.179 160.606  0.00  0.00     0.027 A 
HETATM   28  C   UNK N   1     155.470 144.846 161.880  0.00  0.00     0.027 A 
ENDBRANCH  16  26
ENDBRANCH  15  16
ENDBRANCH   1  15
TORSDOF 7
ENDMDL
MODEL 9
REMARK VINA RESULT:      -5.1     10.782     13.444
REMARK  7 active torsions:
REMARK  status: ('A' for Active; 'I' for Inactive)
REMARK    1  A    between atoms: C_7  and  C_8 
REMARK    2  A    between atoms: C_8  and  C_9 
REMARK       I    between atoms: C_9  and  N_11 
REMARK    3  A    between atoms: N_11  and  C_12 
REMARK    4  A    between atoms: C_12  and  C_13 
REMARK    5  A    between atoms: C_13  and  N_14 
REMARK       I    between atoms: N_14  and  C_15 
REMARK    6  A    between atoms: N_14  and  C_24 
REMARK    7  A    between atoms: C_17  and  C_15 
ROOT
HETATM    1  C   UNK N   1     159.245 159.885 157.250  0.00  0.00     0.142 C 
ENDROOT
BRANCH   1   2
HETATM    2  N   UNK N   1     160.093 158.720 157.198  0.00  0.00    -0.359 N 
HETATM    3  C   UNK N   1     161.203 158.692 156.423  0.00  0.00     0.225 C 
HETATM    4  O   UNK N   1     161.488 159.654 155.724  0.00  0.00    -0.273 OA
HETATM    5  H   UNK N   1     159.861 157.930 157.738  0.00  0.00     0.162 HD
BRANCH   3   6
HETATM    6  C   UNK N   1     162.079 157.464 156.445  0.00  0.00     0.188 C 
BRANCH   6   7
HETATM    7  C   UNK N   1     163.268 157.491 155.525  0.00  0.00     0.148 A 
HETATM    8  N   UNK N   1     164.178 158.484 155.508  0.00  0.00    -0.281 N 
HETATM    9  N   UNK N   1     165.070 158.165 154.583  0.00  0.00    -0.282 N 
ATOM     10  HN  UNK N   1     164.179 159.320 156.093  1.00  0.00     0.189 HD
HETATM   11  C   UNK N   1     164.681 156.986 154.065  0.00  0.00     0.136 A 
ATOM     12  HN  UNK N   1     165.892 158.707 154.316  1.00  0.00     0.189 HD
HETATM   13  C   UNK N   1     165.405 156.255 152.992  0.00  0.00     0.099 C 
HETATM   14  O   UNK N   1     163.580 156.573 154.640  0.00  0.00    -0.282 OA
ENDBRANCH   6   7
ENDBRANCH   3   6
ENDBRANCH   1   2
BRANCH   1  15
HETATM   15  C   UNK N   1     157.835 159.488 157.668  0.00  0.00     0.146 C 
BRANCH  15  16
HETATM   16  N   UNK N   1     156.850 159.416 156.582  0.00  0.00    -0.345 N 
HETATM   17  C   UNK N   1     156.703 158.189 155.959  0.00  0.00     0.225 C 
HETATM   18  O   UNK N   1     157.441 157.273 156.296  0.00  0.00    -0.273 OA
BRANCH  17  19
HETATM   19  C   UNK N   1     155.639 157.826 154.918  0.00  0.00     0.086 C 
HETATM   20  C   UNK N   1     155.913 156.776 153.823  0.00  0.00     0.023 C 
HETATM   21  C   UNK N   1     154.734 155.797 153.967  0.00  0.00     0.009 C 
HETATM   22  C   UNK N   1     153.503 156.555 153.576  0.00  0.00    -0.026 C 
HETATM   23  C   UNK N   1     154.550 155.845 155.474  0.00  0.00     0.018 C 
HETATM   24  C   UNK N   1     153.266 157.461 154.511  0.00  0.00    -0.025 C 
HETATM   25  C   UNK N   1     154.328 157.341 155.563  0.00  0.00     0.021 C 
ENDBRANCH  17  19
BRANCH  16  26
HETATM   26  C   UNK N   1     155.998 160.567 156.277  0.00  0.00     0.087 A 
HETATM   27  C   UNK N   1     154.776 160.655 157.196  0.00  0.00     0.027 A 
HETATM   28  C   UNK N   1     155.960 161.527 157.469  0.00  0.00     0.027 A 
ENDBRANCH  16  26
ENDBRANCH  15  16
ENDBRANCH   1  15
TORSDOF 7
ENDMDL
