
     RDKit          3D

 28 30  0  0  0  0  0  0  0  0999 V2000
   -1.8360   -1.8147   -0.9470 C   0  0  0  0  0  0  0  0  0  0  0  0
   -2.1802   -0.4947    0.0332 C   0  0  1  0  0  0  0  0  0  0  0  0
   -0.8052    0.2177   -0.3442 C   0  0  0  0  0  0  0  0  0  0  0  0
   -0.6779    1.0887   -1.1388 O   0  0  0  0  0  0  0  0  0  0  0  0
    0.2583   -0.3447    0.4053 N   0  0  0  0  0  0  0  0  0  0  0  0
    0.0230   -1.3116    1.4931 C   0  0  0  0  0  0  0  0  0  0  0  0
    0.9454   -2.4813    1.2398 C   0  0  0  0  0  0  0  0  0  0  0  0
    0.5228   -3.6233    1.2659 O   0  0  0  0  0  0  0  0  0  0  0  0
    2.3148   -2.1827    0.9770 N   0  0  0  0  0  0  0  0  0  0  0  0
    2.6462   -0.9308    0.4093 C   0  0  0  0  0  0  0  0  0  0  0  0
    3.9290   -0.5282    0.1275 C   0  0  0  0  0  0  0  0  0  0  0  0
    4.2412    0.6984   -0.4123 C   0  0  0  0  0  0  0  0  0  0  0  0
    5.6753    0.9988   -0.6882 C   0  0  0  0  0  0  0  0  0  0  0  0
    5.8414    2.2828   -1.0941 F   0  0  0  0  0  0  0  0  0  0  0  0
    6.1041    0.1198   -1.6918 F   0  0  0  0  0  0  0  0  0  0  0  0
    6.4599    0.6986    0.4303 F   0  0  0  0  0  0  0  0  0  0  0  0
    3.1946    1.5670   -0.6805 C   0  0  0  0  0  0  0  0  0  0  0  0
    1.8737    1.2197   -0.4109 C   0  0  0  0  0  0  0  0  0  0  0  0
    1.6249   -0.0264    0.1315 C   0  0  0  0  0  0  0  0  0  0  0  0
   -3.0847    0.1860   -1.0649 N   0  0  0  0  0  0  0  0  0  0  0  0
   -4.0886   -0.8885   -1.1993 C   0  0  0  0  0  0  0  0  0  0  0  0
   -4.3847   -1.4777    0.1648 C   0  0  0  0  0  0  0  0  0  0  0  0
   -4.7110   -0.3541    1.1494 C   0  0  0  0  0  0  0  0  0  0  0  0
   -4.8848    0.9471    0.4225 C   0  0  1  0  0  0  0  0  0  0  0  0
   -6.1099    0.8819   -0.4657 C   0  0  0  0  0  0  0  0  0  0  0  0
   -5.1258    2.0416    1.4267 C   0  0  0  0  0  0  0  0  0  0  0  0
   -4.0797    2.1757    2.3363 O   0  0  0  0  0  0  0  0  0  0  0  0
   -3.6862    1.3351   -0.4093 C   0  0  0  0  0  0  0  0  0  0  0  0
  2  1  1  6
  2  3  1  0
  3  4  2  0
  3  5  1  0
  5  6  1  0
  6  7  1  0
  7  8  2  0
  7  9  1  0
  9 10  1  0
 10 11  2  0
 11 12  1  0
 12 13  1  0
 13 14  1  0
 13 15  1  0
 13 16  1  0
 12 17  2  0
 17 18  1  0
 18 19  2  0
  2 20  1  0
 20 21  1  0
 21 22  1  0
 22 23  1  0
 23 24  1  0
 24 25  1  6
 24 26  1  0
 26 27  1  0
 24 28  1  0
 19  5  1  0
 28 20  1  0
 19 10  1  0
M  END
>  <zinc_id>  (1) 
ZINC000151425088

>  <smiles>  (1) 
C[C@@H](C(=O)N1CC(=O)Nc2cc(C(F)(F)F)ccc21)N1CCC[C@@](C)(CO)C1

$$$$

     RDKit          3D

 26 29  0  0  0  0  0  0  0  0999 V2000
    4.8439    2.3599   -1.3759 C   0  0  0  0  0  0  0  0  0  0  0  0
    4.2089    1.3172   -0.8913 C   0  0  0  0  0  0  0  0  0  0  0  0
    3.0025    0.9238   -1.2003 O   0  0  0  0  0  0  0  0  0  0  0  0
    2.6248   -0.1508   -0.5599 C   0  0  0  0  0  0  0  0  0  0  0  0
    1.3607   -0.8728   -0.6438 C   0  0  0  0  0  0  0  0  0  0  0  0
    1.1064   -1.8851    0.0111 O   0  0  0  0  0  0  0  0  0  0  0  0
    0.3502   -0.4168   -1.5113 N   0  0  0  0  0  0  0  0  0  0  0  0
   -0.8991   -0.9649   -1.7224 C   0  0  0  0  0  0  0  0  0  0  0  0
   -1.7422   -0.9711   -0.2691 C   0  0  1  0  0  0  0  0  0  0  0  0
   -1.7290    0.6810    0.0121 C   0  0  0  0  0  0  0  0  0  0  0  0
   -3.0492   -0.0582   -0.7130 C   0  0  1  0  0  0  0  0  0  0  0  0
   -3.2591    0.4015   -2.0204 C   0  0  0  0  0  0  0  0  0  0  0  0
   -4.6420    0.1739   -2.4965 C   0  0  0  0  0  0  0  0  0  0  0  0
   -5.3926   -0.8629   -1.6832 C   0  0  0  0  0  0  0  0  0  0  0  0
   -5.3496   -0.5408   -0.2241 C   0  0  0  0  0  0  0  0  0  0  0  0
   -6.4685   -0.6531    0.5873 C   0  0  0  0  0  0  0  0  0  0  0  0
   -6.3471   -0.3385    1.9161 C   0  0  0  0  0  0  0  0  0  0  0  0
   -5.1463    0.0782    2.4320 C   0  0  0  0  0  0  0  0  0  0  0  0
   -4.0386    0.1816    1.5917 C   0  0  0  0  0  0  0  0  0  0  0  0
   -4.1286   -0.1267    0.2553 C   0  0  0  0  0  0  0  0  0  0  0  0
    3.6620   -0.5594    0.2843 C   0  0  0  0  0  0  0  0  0  0  0  0
    4.6509    0.4021    0.0426 C   0  0  0  0  0  0  0  0  0  0  0  0
    6.2166    0.4340    0.8146 S   0  0  0  0  0  0  0  0  0  0  0  0
    7.4323    0.3115   -0.4068 N   0  0  0  0  0  0  0  0  0  0  0  0
    6.3410   -0.6425    1.8483 O   0  0  0  0  0  0  0  0  0  0  0  0
    6.3919    1.7789    1.4855 O   0  0  0  0  0  0  0  0  0  0  0  0
  1  2  1  0
  2  3  1  0
  3  4  1  0
  4  5  1  0
  5  6  2  0
  5  7  1  0
  7  8  1  0
  9  8  1  6
  9 10  1  0
 11 10  1  1
 11 12  1  0
 12 13  1  0
 13 14  1  0
 14 15  1  0
 15 16  2  0
 16 17  1  0
 17 18  2  0
 18 19  1  0
 19 20  2  0
  4 21  2  0
 21 22  1  0
 22 23  1  0
 23 24  1  0
 23 25  2  0
 23 26  2  0
 22  2  2  0
 11  9  1  0
 20 15  1  0
 20 11  1  0
M  END
>  <zinc_id>  (2) 
ZINC000151425092

>  <smiles>  (2) 
Cc1oc(C(=O)NC[C@H]2C[C@@]23CCCc2ccccc23)cc1S(N)(=O)=O

$$$$

     RDKit          3D

 22 24  0  0  0  0  0  0  0  0999 V2000
   -6.6019    0.9133    0.4990 C   0  0  0  0  0  0  0  0  0  0  0  0
   -5.8143    0.1548   -0.4107 C   0  0  0  0  0  0  0  0  0  0  0  0
   -4.9905    1.1093   -1.2522 C   0  0  0  0  0  0  0  0  0  0  0  0
   -4.9547   -0.7978    0.3806 C   0  0  0  0  0  0  0  0  0  0  0  0
   -4.0253   -0.1207    1.3386 C   0  0  0  0  0  0  0  0  0  0  0  0
   -2.8716    0.4666    0.5642 C   0  0  0  0  0  0  0  0  0  0  0  0
   -2.1796   -0.6345   -0.2153 C   0  0  0  0  0  0  0  0  0  0  0  0
   -0.8028   -0.6430    0.2150 N   0  0  0  0  0  0  0  0  0  0  0  0
    0.1520    0.0454   -0.5576 C   0  0  0  0  0  0  0  0  0  0  0  0
   -0.2736    0.6329   -1.5875 O   0  0  0  0  0  0  0  0  0  0  0  0
    1.5154    0.0617   -0.1715 N   0  0  0  0  0  0  0  0  0  0  0  0
    1.9145   -0.6180    0.9851 C   0  0  0  0  0  0  0  0  0  0  0  0
    3.2800   -0.5821    1.4473 C   0  0  0  0  0  0  0  0  0  0  0  0
    4.1103    0.6017    0.6641 C   0  0  1  0  0  0  0  0  0  0  0  0
    5.4008   -0.1589    0.7625 O   0  0  0  0  0  0  0  0  0  0  0  0
    6.3211    0.7245    0.2131 C   0  0  0  0  0  0  0  0  0  0  0  0
    6.0992    0.8402   -1.2696 C   0  0  0  0  0  0  0  0  0  0  0  0
    4.6756    1.0675   -1.6321 C   0  0  0  0  0  0  0  0  0  0  0  0
    3.7675   -0.0465   -0.8708 C   0  0  2  0  0  0  0  0  0  0  0  0
    2.4147    0.8027   -1.0233 C   0  0  0  0  0  0  0  0  0  0  0  0
   -2.8398   -1.9653   -0.0546 C   0  0  0  0  0  0  0  0  0  0  0  0
   -4.2967   -1.8539   -0.4425 C   0  0  0  0  0  0  0  0  0  0  0  0
  1  2  1  0
  2  3  1  0
  2  4  1  0
  4  5  1  0
  5  6  1  0
  6  7  1  0
  7  8  1  0
  8  9  1  0
  9 10  2  0
  9 11  1  0
 11 12  1  0
 12 13  1  0
 14 13  1  1
 14 15  1  0
 15 16  1  0
 16 17  1  0
 17 18  1  0
 19 18  1  6
 19 20  1  0
  7 21  1  0
 21 22  1  0
 22  4  1  0
 20 11  1  0
 19 14  1  0
M  END
>  <zinc_id>  (3) 
ZINC000151425101

>  <smiles>  (3) 
CC(C)C1CCC(NC(=O)N2CC[C@H]3OCCC[C@@H]3C2)CC1

$$$$

     RDKit          3D

 23 24  0  0  0  0  0  0  0  0999 V2000
    4.9792   -0.2645    1.0744 C   0  0  0  0  0  0  0  0  0  0  0  0
    3.5428   -0.5929    1.0775 C   0  0  0  0  0  0  0  0  0  0  0  0
    3.2432   -1.3859   -0.1842 C   0  0  0  0  0  0  0  0  0  0  0  0
    3.5958   -0.5297   -1.3885 C   0  0  0  0  0  0  0  0  0  0  0  0
    4.0109   -2.6824   -0.1805 C   0  0  0  0  0  0  0  0  0  0  0  0
    1.7930   -1.6675   -0.2522 C   0  0  0  0  0  0  0  0  0  0  0  0
    1.4559   -2.9053   -0.2726 O   0  0  0  0  0  0  0  0  0  0  0  0
    0.7909   -0.7141   -0.2948 N   0  0  0  0  0  0  0  0  0  0  0  0
    1.0868    0.6830   -0.2757 C   0  0  0  0  0  0  0  0  0  0  0  0
   -0.0805    1.1993   -1.3296 C   0  0  2  0  0  0  0  0  0  0  0  0
    0.2987    2.7596   -1.1748 C   0  0  0  0  0  0  0  0  0  0  0  0
    0.6097    3.3209   -2.2483 O   0  0  0  0  0  0  0  0  0  0  0  0
    0.2603    3.3386    0.0409 O   0  0  0  0  0  0  0  0  0  0  0  0
    0.6087    4.7285    0.1132 C   0  0  0  0  0  0  0  0  0  0  0  0
   -1.3473    1.2438   -0.3030 C   0  0  0  0  0  0  0  0  0  0  0  0
   -1.0865    0.0382    0.7648 C   0  0  1  0  0  0  0  0  0  0  0  0
   -2.6127   -0.4851    0.7949 C   0  0  0  0  0  0  0  0  0  0  0  0
   -3.1224   -0.7223    2.0531 C   0  0  0  0  0  0  0  0  0  0  0  0
   -4.4463   -1.1766    2.0897 C   0  0  0  0  0  0  0  0  0  0  0  0
   -5.1628   -1.3631    0.9211 C   0  0  0  0  0  0  0  0  0  0  0  0
   -4.5713   -1.0998   -0.3015 C   0  0  0  0  0  0  0  0  0  0  0  0
   -3.2591   -0.6481   -0.3642 C   0  0  0  0  0  0  0  0  0  0  0  0
   -0.5872   -1.0746   -0.3598 C   0  0  0  0  0  0  0  0  0  0  0  0
  1  2  1  0
  2  3  1  0
  3  4  1  0
  3  5  1  0
  3  6  1  0
  6  7  2  0
  6  8  1  0
  8  9  1  0
  9 10  1  0
 10 11  1  1
 11 12  2  0
 11 13  1  0
 13 14  1  0
 10 15  1  0
 15 16  1  0
 16 17  1  6
 17 18  2  0
 18 19  1  0
 19 20  2  0
 20 21  1  0
 21 22  2  0
 16 23  1  0
 23  8  1  0
 22 17  1  0
M  END
>  <zinc_id>  (4) 
ZINC000151425142

>  <smiles>  (4) 
CCC(C)(C)C(=O)N1C[C@H](c2ccccc2)C[C@@H](C(=O)OC)C1

$$$$

     RDKit          3D

 23 25  0  0  0  0  0  0  0  0999 V2000
   -7.4982    2.2660   -1.1544 C   0  0  0  0  0  0  0  0  0  0  0  0
   -6.4152    1.5481   -0.6987 C   0  0  0  0  0  0  0  0  0  0  0  0
   -6.5641    0.5875    0.2851 C   0  0  0  0  0  0  0  0  0  0  0  0
   -5.4756   -0.1318    0.7410 C   0  0  0  0  0  0  0  0  0  0  0  0
   -4.2159    0.1005    0.2169 C   0  0  0  0  0  0  0  0  0  0  0  0
   -3.1103   -0.6854    0.7346 C   0  0  0  0  0  0  0  0  0  0  0  0
   -1.9035   -0.5110    0.2800 C   0  0  0  0  0  0  0  0  0  0  0  0
   -0.7444   -1.2471    0.7360 C   0  0  0  0  0  0  0  0  0  0  0  0
   -0.8756   -2.1209    1.6297 O   0  0  0  0  0  0  0  0  0  0  0  0
    0.5323   -0.9635    0.1573 N   0  0  0  0  0  0  0  0  0  0  0  0
    0.8251   -0.0008   -0.8621 C   0  0  0  0  0  0  0  0  0  0  0  0
    2.2875    0.2970   -0.7873 C   0  0  0  0  0  0  0  0  0  0  0  0
    2.7106   -0.3015    0.6209 C   0  0  2  0  0  0  0  0  0  0  0  0
    4.3091   -1.0810    0.0658 S   0  0  0  0  0  0  0  0  0  0  0  0
    4.8491   -1.6889    1.3181 O   0  0  0  0  0  0  0  0  0  0  0  0
    4.0540   -2.1376   -0.9253 O   0  0  0  0  0  0  0  0  0  0  0  0
    5.3160    0.1794   -0.5373 N   0  0  0  0  0  0  0  0  0  0  0  0
    5.6310    1.1558    0.4575 C   0  0  0  0  0  0  0  0  0  0  0  0
    6.5336    2.2798   -0.0957 C   0  0  0  0  0  0  0  0  0  0  0  0
    7.1651    1.2166    0.7393 C   0  0  0  0  0  0  0  0  0  0  0  0
    1.8088   -1.5944    0.4819 C   0  0  0  0  0  0  0  0  0  0  0  0
   -4.0596    1.0583   -0.7659 C   0  0  0  0  0  0  0  0  0  0  0  0
   -5.1599    1.7749   -1.2163 C   0  0  0  0  0  0  0  0  0  0  0  0
  1  2  1  0
  2  3  2  0
  3  4  1  0
  4  5  2  0
  5  6  1  0
  6  7  2  0
  7  8  1  0
  8  9  2  0
  8 10  1  0
 10 11  1  0
 11 12  1  0
 12 13  1  0
 13 14  1  6
 14 15  2  0
 14 16  2  0
 14 17  1  0
 17 18  1  0
 18 19  1  0
 19 20  1  0
 13 21  1  0
  5 22  1  0
 22 23  2  0
 23  2  1  0
 21 10  1  0
 20 18  1  0
M  END
>  <zinc_id>  (5) 
ZINC000151425149

>  <smiles>  (5) 
Cc1ccc(/C=C/C(=O)N2CC[C@H](S(=O)(=O)NC3CC3)C2)cc1

$$$$

     RDKit          3D

 22 24  0  0  0  0  0  0  0  0999 V2000
   -1.0402    2.2814   -1.5828 C   0  0  0  0  0  0  0  0  0  0  0  0
   -2.0382    1.3307   -1.3448 C   0  0  0  0  0  0  0  0  0  0  0  0
   -1.1388    0.0730   -0.6450 C   0  0  2  0  0  0  0  0  0  0  0  0
   -2.4326   -0.8827   -0.4547 C   0  0  0  0  0  0  0  0  0  0  0  0
   -2.6080   -2.1829   -0.7413 C   0  0  0  0  0  0  0  0  0  0  0  0
   -3.9126   -2.5049   -0.3963 C   0  0  0  0  0  0  0  0  0  0  0  0
   -4.4455   -1.2986    0.1005 C   0  0  0  0  0  0  0  0  0  0  0  0
   -3.5089   -0.3765    0.0366 N   0  0  0  0  0  0  0  0  0  0  0  0
   -3.5169    1.0070    0.4437 C   0  0  0  0  0  0  0  0  0  0  0  0
   -2.3713    1.0943    1.4323 C   0  0  0  0  0  0  0  0  0  0  0  0
   -1.1804    0.7561    0.7854 N   0  0  0  0  0  0  0  0  0  0  0  0
    0.0806    1.0025    1.3767 C   0  0  0  0  0  0  0  0  0  0  0  0
    0.0706    1.5826    2.5071 O   0  0  0  0  0  0  0  0  0  0  0  0
    1.3633    0.6559    0.8089 C   0  0  0  0  0  0  0  0  0  0  0  0
    1.6538   -0.0572   -0.3195 C   0  0  0  0  0  0  0  0  0  0  0  0
    3.0371   -0.1375   -0.4147 C   0  0  0  0  0  0  0  0  0  0  0  0
    3.7783   -0.8179   -1.5092 C   0  0  0  0  0  0  0  0  0  0  0  0
    4.3866   -2.0870   -1.0321 C   0  0  0  0  0  0  0  0  0  0  0  0
    2.8185   -1.0788   -2.6548 C   0  0  0  0  0  0  0  0  0  0  0  0
    4.8952    0.1326   -1.9325 C   0  0  0  0  0  0  0  0  0  0  0  0
    3.5577    0.5239    0.6546 N   0  0  0  0  0  0  0  0  0  0  0  0
    2.5518    0.9840    1.3636 N   0  0  0  0  0  0  0  0  0  0  0  0
  1  2  1  0
  3  2  1  6
  3  4  1  0
  4  5  2  0
  5  6  1  0
  6  7  2  0
  7  8  1  0
  8  9  1  0
  9 10  1  0
 10 11  1  0
 11 12  1  0
 12 13  2  0
 12 14  1  0
 14 15  2  0
 15 16  1  0
 16 17  1  0
 17 18  1  0
 17 19  1  0
 17 20  1  0
 16 21  2  0
 21 22  1  0
 11  3  1  0
 22 14  1  0
  8  4  1  0
M  END
>  <zinc_id>  (6) 
ZINC000151425157

>  <smiles>  (6) 
CC[C@@H]1c2cccn2CCN1C(=O)c1cc(C(C)(C)C)n[nH]1

$$$$

     RDKit          3D

 26 29  0  0  0  0  0  0  0  0999 V2000
    8.2229   -0.6269    0.6088 F   0  0  0  0  0  0  0  0  0  0  0  0
    7.0434   -0.5453    0.2999 C   0  0  0  0  0  0  0  0  0  0  0  0
    6.2212    0.1900    1.2712 C   0  0  0  0  0  0  0  0  0  0  0  0
    4.8339    0.3774    0.9849 C   0  0  0  0  0  0  0  0  0  0  0  0
    4.2627   -0.1471   -0.2398 C   0  0  0  0  0  0  0  0  0  0  0  0
    2.8987    0.0306   -0.4717 N   0  0  0  0  0  0  0  0  0  0  0  0
    1.8708    0.3580    0.4534 C   0  0  0  0  0  0  0  0  0  0  0  0
    0.8043   -0.6637   -0.0082 C   0  0  0  0  0  0  0  0  0  0  0  0
    0.7559   -0.3910   -1.6123 C   0  0  1  0  0  0  0  0  0  0  0  0
    0.2913    1.2043   -1.4983 C   0  0  0  0  0  0  0  0  0  0  0  0
   -0.9344    1.0816   -0.9639 N   0  0  0  0  0  0  0  0  0  0  0  0
   -1.7374    1.7577   -0.0711 C   0  0  0  0  0  0  0  0  0  0  0  0
   -3.1086    1.1716   -0.1658 C   0  0  0  0  0  0  0  0  0  0  0  0
   -3.9772    1.6972   -1.0857 C   0  0  0  0  0  0  0  0  0  0  0  0
   -5.2863    1.2476   -1.1900 C   0  0  0  0  0  0  0  0  0  0  0  0
   -5.6687    0.2382   -0.3222 C   0  0  0  0  0  0  0  0  0  0  0  0
   -6.9345   -0.2391   -0.3582 F   0  0  0  0  0  0  0  0  0  0  0  0
   -4.8366   -0.3042    0.6002 C   0  0  0  0  0  0  0  0  0  0  0  0
   -5.2559   -1.3477    1.4241 C   0  0  0  0  0  0  0  0  0  0  0  0
   -4.2732   -1.8487    2.3029 C   0  0  0  0  0  0  0  0  0  0  0  0
   -2.9855   -1.3222    2.3523 C   0  0  0  0  0  0  0  0  0  0  0  0
   -2.6127   -0.2791    1.5196 N   0  0  0  0  0  0  0  0  0  0  0  0
   -3.5577    0.1745    0.6701 C   0  0  0  0  0  0  0  0  0  0  0  0
    2.3498   -0.0116   -1.8244 C   0  0  0  0  0  0  0  0  0  0  0  0
    5.1251   -0.7928   -1.0442 C   0  0  0  0  0  0  0  0  0  0  0  0
    6.4887   -1.0093   -0.8143 C   0  0  0  0  0  0  0  0  0  0  0  0
  1  2  1  0
  2  3  2  0
  3  4  1  0
  4  5  2  0
  5  6  1  0
  6  7  1  0
  7  8  1  0
  8  9  1  0
  9 10  1  1
 10 11  1  0
 11 12  1  0
 12 13  1  0
 13 14  2  0
 14 15  1  0
 15 16  2  0
 16 17  1  0
 16 18  1  0
 18 19  2  0
 19 20  1  0
 20 21  2  0
 21 22  1  0
 22 23  2  0
  9 24  1  0
  5 25  1  0
 25 26  2  0
 26  2  1  0
 24  6  1  0
 23 13  1  0
 23 18  1  0
M  END
>  <zinc_id>  (7) 
ZINC000151425159

>  <smiles>  (7) 
Fc1ccc(N2CC[C@@H](CNCc3ccc(F)c4cccnc34)C2)cc1

$$$$

     RDKit          3D

 22 24  0  0  0  0  0  0  0  0999 V2000
   -6.3998   -0.6449    0.1681 C   0  0  0  0  0  0  0  0  0  0  0  0
   -5.7009    0.1392   -0.8313 C   0  0  0  0  0  0  0  0  0  0  0  0
   -6.3611    1.3558   -1.3507 C   0  0  0  0  0  0  0  0  0  0  0  0
   -4.2316    0.1403   -0.8027 C   0  0  0  0  0  0  0  0  0  0  0  0
   -3.7305   -1.2514   -0.9860 C   0  0  0  0  0  0  0  0  0  0  0  0
   -2.2973   -1.4624   -0.6824 C   0  0  0  0  0  0  0  0  0  0  0  0
   -2.0292   -0.9954    0.7484 C   0  0  0  0  0  0  0  0  0  0  0  0
   -0.5701   -1.1614    0.9103 N   0  0  0  0  0  0  0  0  0  0  0  0
    0.3082   -0.0644    0.9005 C   0  0  0  0  0  0  0  0  0  0  0  0
   -0.2077    1.0990    0.7515 O   0  0  0  0  0  0  0  0  0  0  0  0
    1.6997   -0.1039    1.0394 N   0  0  0  0  0  0  0  0  0  0  0  0
    2.3657   -1.3640    1.2177 C   0  0  0  0  0  0  0  0  0  0  0  0
    3.7568   -1.0921    0.6109 C   0  0  0  0  0  0  0  0  0  0  0  0
    3.4535   -0.5099   -0.8787 C   0  0  2  0  0  0  0  0  0  0  0  0
    4.8749   -0.3128   -1.2852 O   0  0  0  0  0  0  0  0  0  0  0  0
    5.7169   -0.1578   -0.2668 C   0  0  0  0  0  0  0  0  0  0  0  0
    5.3306    1.0867    0.4848 C   0  0  0  0  0  0  0  0  0  0  0  0
    4.4000    1.8288   -0.3817 C   0  0  0  0  0  0  0  0  0  0  0  0
    2.9888    1.0861   -0.5399 C   0  0  2  0  0  0  0  0  0  0  0  0
    2.5996    1.0241    1.0146 C   0  0  0  0  0  0  0  0  0  0  0  0
   -2.2908    0.4809    0.7562 C   0  0  0  0  0  0  0  0  0  0  0  0
   -3.6756    0.8796    0.3565 C   0  0  0  0  0  0  0  0  0  0  0  0
  1  2  1  0
  2  3  1  0
  2  4  1  0
  4  5  1  0
  5  6  1  0
  6  7  1  0
  7  8  1  0
  8  9  1  0
  9 10  2  0
  9 11  1  0
 11 12  1  0
 12 13  1  0
 14 13  1  1
 14 15  1  0
 15 16  1  0
 16 17  1  0
 17 18  1  0
 19 18  1  1
 19 20  1  0
  7 21  1  0
 21 22  1  0
 22  4  1  0
 20 11  1  0
 19 14  1  0
M  END
>  <zinc_id>  (8) 
ZINC000151425164

>  <smiles>  (8) 
CC(C)C1CCC(NC(=O)N2CC[C@@H]3OCCC[C@@H]3C2)CC1

$$$$

     RDKit          3D

 28 30  0  0  0  0  0  0  0  0999 V2000
    2.0503    1.9194    1.5878 C   0  0  0  0  0  0  0  0  0  0  0  0
    2.0895    1.2566    0.0292 C   0  0  2  0  0  0  0  0  0  0  0  0
    0.5252    1.0298   -0.0742 C   0  0  0  0  0  0  0  0  0  0  0  0
    0.0199    2.0904   -0.6032 O   0  0  0  0  0  0  0  0  0  0  0  0
   -0.2029   -0.0519    0.3071 N   0  0  0  0  0  0  0  0  0  0  0  0
    0.2143   -1.2984    0.9109 C   0  0  0  0  0  0  0  0  0  0  0  0
   -0.4187   -2.3806    0.0791 C   0  0  0  0  0  0  0  0  0  0  0  0
    0.2836   -3.2780   -0.4085 O   0  0  0  0  0  0  0  0  0  0  0  0
   -1.8231   -2.3523   -0.1320 N   0  0  0  0  0  0  0  0  0  0  0  0
   -2.4379   -1.0667   -0.1177 C   0  0  0  0  0  0  0  0  0  0  0  0
   -3.7935   -0.9431   -0.3186 C   0  0  0  0  0  0  0  0  0  0  0  0
   -4.3809    0.2937   -0.3094 C   0  0  0  0  0  0  0  0  0  0  0  0
   -5.8593    0.4473   -0.5258 C   0  0  0  0  0  0  0  0  0  0  0  0
   -6.3522    1.5249    0.1889 F   0  0  0  0  0  0  0  0  0  0  0  0
   -6.5332   -0.6804   -0.0742 F   0  0  0  0  0  0  0  0  0  0  0  0
   -6.1037    0.5395   -1.8762 F   0  0  0  0  0  0  0  0  0  0  0  0
   -3.5850    1.3997   -0.0962 C   0  0  0  0  0  0  0  0  0  0  0  0
   -2.2259    1.2971    0.1071 C   0  0  0  0  0  0  0  0  0  0  0  0
   -1.6434    0.0218    0.0943 C   0  0  0  0  0  0  0  0  0  0  0  0
    2.4871   -0.1734    0.5481 N   0  0  0  0  0  0  0  0  0  0  0  0
    3.0394   -0.8285   -0.6555 C   0  0  0  0  0  0  0  0  0  0  0  0
    4.0310   -1.8368   -0.1653 C   0  0  0  0  0  0  0  0  0  0  0  0
    5.3558   -1.0475   -0.0396 C   0  0  0  0  0  0  0  0  0  0  0  0
    4.9117    0.3299    0.4837 C   0  0  1  0  0  0  0  0  0  0  0  0
    6.0308    0.8336    1.3597 C   0  0  0  0  0  0  0  0  0  0  0  0
    4.7338    1.2879   -0.6620 C   0  0  0  0  0  0  0  0  0  0  0  0
    5.9095    1.4686   -1.3850 O   0  0  0  0  0  0  0  0  0  0  0  0
    3.6782    0.1973    1.3345 C   0  0  0  0  0  0  0  0  0  0  0  0
  2  1  1  1
  2  3  1  0
  3  4  2  0
  3  5  1  0
  5  6  1  0
  6  7  1  0
  7  8  2  0
  7  9  1  0
  9 10  1  0
 10 11  2  0
 11 12  1  0
 12 13  1  0
 13 14  1  0
 13 15  1  0
 13 16  1  0
 12 17  2  0
 17 18  1  0
 18 19  2  0
  2 20  1  0
 20 21  1  0
 21 22  1  0
 22 23  1  0
 23 24  1  0
 24 25  1  1
 24 26  1  0
 26 27  1  0
 24 28  1  0
 19  5  1  0
 28 20  1  0
 19 10  1  0
M  END
>  <zinc_id>  (9) 
ZINC000151425165

>  <smiles>  (9) 
C[C@H](C(=O)N1CC(=O)Nc2cc(C(F)(F)F)ccc21)N1CCC[C@@](C)(CO)C1

$$$$

     RDKit          3D

 19 20  0  0  0  0  0  0  0  0999 V2000
    4.0434    1.4442    0.5253 C   0  0  0  0  0  0  0  0  0  0  0  0
    3.0577    0.7189   -0.3154 C   0  0  0  0  0  0  0  0  0  0  0  0
    3.2114    0.4945   -1.6491 N   0  0  0  0  0  0  0  0  0  0  0  0
    2.1213   -0.1847   -2.0456 N   0  0  0  0  0  0  0  0  0  0  0  0
    1.3275   -0.3679   -0.9826 C   0  0  0  0  0  0  0  0  0  0  0  0
    0.0230   -1.0679   -0.9676 C   0  0  0  0  0  0  0  0  0  0  0  0
   -0.5617   -1.0803    0.3459 N   0  0  0  0  0  0  0  0  0  0  0  0
   -1.4402   -0.0753    0.8019 C   0  0  0  0  0  0  0  0  0  0  0  0
   -1.8722   -0.1989    2.0008 O   0  0  0  0  0  0  0  0  0  0  0  0
   -1.8657    1.0731   -0.0256 C   0  0  0  0  0  0  0  0  0  0  0  0
   -2.6861    2.0305    0.4506 C   0  0  0  0  0  0  0  0  0  0  0  0
   -3.0328    3.0359   -0.3793 C   0  0  0  0  0  0  0  0  0  0  0  0
   -2.2217    2.6561   -1.8228 S   0  0  0  0  0  0  0  0  0  0  0  0
   -1.4597    1.2190   -1.3249 C   0  0  0  0  0  0  0  0  0  0  0  0
   -0.2311   -2.1844    1.2486 C   0  0  0  0  0  0  0  0  0  0  0  0
    0.7174   -3.1248    0.5419 C   0  0  0  0  0  0  0  0  0  0  0  0
    0.4129   -1.6150    2.5166 C   0  0  0  0  0  0  0  0  0  0  0  0
   -1.4449   -2.9537    1.6714 C   0  0  0  0  0  0  0  0  0  0  0  0
    1.9014    0.1806    0.0545 O   0  0  0  0  0  0  0  0  0  0  0  0
  1  2  1  0
  2  3  2  0
  3  4  1  0
  4  5  2  0
  5  6  1  0
  6  7  1  0
  7  8  1  0
  8  9  2  0
  8 10  1  0
 10 11  1  0
 11 12  2  0
 12 13  1  0
 13 14  1  0
  7 15  1  0
 15 16  1  0
 15 17  1  0
 15 18  1  0
  5 19  1  0
 19  2  1  0
 14 10  2  0
M  END
>  <zinc_id>  (10) 
ZINC000151425166

>  <smiles>  (10) 
Cc1nnc(CN(C(=O)c2ccsc2)C(C)(C)C)o1

$$$$

     RDKit          3D

 26 29  0  0  0  0  0  0  0  0999 V2000
   -3.2104   -1.4343    2.4457 C   0  0  0  0  0  0  0  0  0  0  0  0
   -3.0882   -0.7861    1.2166 C   0  0  0  0  0  0  0  0  0  0  0  0
   -2.0187   -0.4673    0.5507 O   0  0  0  0  0  0  0  0  0  0  0  0
   -2.2507    0.1323   -0.5654 C   0  0  0  0  0  0  0  0  0  0  0  0
   -1.3439    0.6446   -1.5859 C   0  0  0  0  0  0  0  0  0  0  0  0
   -1.7979    1.2115   -2.6399 O   0  0  0  0  0  0  0  0  0  0  0  0
    0.0544    0.5722   -1.5213 N   0  0  0  0  0  0  0  0  0  0  0  0
    0.9752    1.0296   -2.4418 C   0  0  0  0  0  0  0  0  0  0  0  0
    2.4975    0.7985   -2.0812 C   0  0  2  0  0  0  0  0  0  0  0  0
    2.3895   -0.8673   -1.9796 C   0  0  0  0  0  0  0  0  0  0  0  0
    2.5341    0.0578   -0.6527 C   0  0  2  0  0  0  0  0  0  0  0  0
    1.5397    0.1254    0.3361 C   0  0  0  0  0  0  0  0  0  0  0  0
    1.9987    0.8933    1.5146 C   0  0  0  0  0  0  0  0  0  0  0  0
    3.3270    1.5916    1.3917 C   0  0  0  0  0  0  0  0  0  0  0  0
    4.3211    0.6126    0.8968 C   0  0  0  0  0  0  0  0  0  0  0  0
    5.5716    0.5185    1.4734 C   0  0  0  0  0  0  0  0  0  0  0  0
    6.4812   -0.4168    0.9825 C   0  0  0  0  0  0  0  0  0  0  0  0
    6.0944   -1.2107   -0.0602 C   0  0  0  0  0  0  0  0  0  0  0  0
    4.8094   -1.0901   -0.6277 C   0  0  0  0  0  0  0  0  0  0  0  0
    3.9206   -0.1764   -0.1483 C   0  0  0  0  0  0  0  0  0  0  0  0
   -3.6307    0.2289   -0.6634 C   0  0  0  0  0  0  0  0  0  0  0  0
   -4.1724   -0.3592    0.4779 C   0  0  0  0  0  0  0  0  0  0  0  0
   -5.8783   -0.5227    0.8899 S   0  0  0  0  0  0  0  0  0  0  0  0
   -6.7840    0.1833   -0.3857 N   0  0  0  0  0  0  0  0  0  0  0  0
   -6.2657   -1.9703    0.9815 O   0  0  0  0  0  0  0  0  0  0  0  0
   -6.0734    0.1926    2.1956 O   0  0  0  0  0  0  0  0  0  0  0  0
  1  2  1  0
  2  3  1  0
  3  4  1  0
  4  5  1  0
  5  6  2  0
  5  7  1  0
  7  8  1  0
  9  8  1  1
  9 10  1  0
 11 10  1  6
 11 12  1  0
 12 13  1  0
 13 14  1  0
 14 15  1  0
 15 16  2  0
 16 17  1  0
 17 18  2  0
 18 19  1  0
 19 20  2  0
  4 21  2  0
 21 22  1  0
 22 23  1  0
 23 24  1  0
 23 25  2  0
 23 26  2  0
 22  2  2  0
 11  9  1  0
 20 15  1  0
 20 11  1  0
M  END
>  <zinc_id>  (11) 
ZINC000151425168

>  <smiles>  (11) 
Cc1oc(C(=O)NC[C@@H]2C[C@]23CCCc2ccccc23)cc1S(N)(=O)=O

$$$$

     RDKit          3D

 22 24  0  0  0  0  0  0  0  0999 V2000
   -4.9346    0.7265   -1.8510 C   0  0  0  0  0  0  0  0  0  0  0  0
   -5.6944    0.1349   -0.5050 C   0  0  1  0  0  0  0  0  0  0  0  0
   -5.1542   -1.4028   -0.7294 C   0  0  0  0  0  0  0  0  0  0  0  0
   -3.9762   -1.5322    0.0691 C   0  0  0  0  0  0  0  0  0  0  0  0
   -3.4538    0.0038   -0.3505 C   0  0  2  0  0  0  0  0  0  0  0  0
   -2.3760    0.0995    0.8182 C   0  0  0  0  0  0  0  0  0  0  0  0
   -2.7226    0.5444    1.9225 O   0  0  0  0  0  0  0  0  0  0  0  0
   -1.0752   -0.3244    0.5500 N   0  0  0  0  0  0  0  0  0  0  0  0
   -0.1021   -0.2341    1.6173 C   0  0  0  0  0  0  0  0  0  0  0  0
    0.8114    0.8749    1.1417 C   0  0  0  0  0  0  0  0  0  0  0  0
    1.4819    0.2903   -0.0464 N   0  0  0  0  0  0  0  0  0  0  0  0
    2.8907    0.4064   -0.0647 C   0  0  0  0  0  0  0  0  0  0  0  0
    3.5392    1.0460    1.0065 C   0  0  0  0  0  0  0  0  0  0  0  0
    4.8979    1.2158    1.0952 C   0  0  0  0  0  0  0  0  0  0  0  0
    5.6609    0.7332    0.0807 C   0  0  0  0  0  0  0  0  0  0  0  0
    5.0841    0.1014   -0.9879 C   0  0  0  0  0  0  0  0  0  0  0  0
    3.7019   -0.0629   -1.0628 C   0  0  0  0  0  0  0  0  0  0  0  0
    3.1543   -0.7286   -2.1987 C   0  0  0  0  0  0  0  0  0  0  0  0
    2.7402   -1.2710   -3.1294 N   0  0  0  0  0  0  0  0  0  0  0  0
    0.7288   -0.3327   -1.0702 C   0  0  0  0  0  0  0  0  0  0  0  0
   -0.6042   -0.8464   -0.6940 C   0  0  0  0  0  0  0  0  0  0  0  0
   -4.5980    0.5578    0.4492 O   0  0  0  0  0  0  0  0  0  0  0  0
  2  1  1  6
  2  3  1  0
  3  4  1  0
  4  5  1  0
  5  6  1  1
  6  7  2  0
  6  8  1  0
  8  9  1  0
  9 10  1  0
 10 11  1  0
 11 12  1  0
 12 13  2  0
 13 14  1  0
 14 15  2  0
 15 16  1  0
 16 17  2  0
 17 18  1  0
 18 19  3  0
 11 20  1  0
 20 21  1  0
  5 22  1  0
 22  2  1  0
 21  8  1  0
 17 12  1  0
M  END
>  <zinc_id>  (12) 
ZINC000151425199

>  <smiles>  (12) 
C[C@H]1CC[C@H](C(=O)N2CCN(c3ccccc3C#N)CC2)O1

$$$$

     RDKit          3D

 26 29  0  0  0  0  0  0  0  0999 V2000
    7.2594    1.6677   -0.8059 F   0  0  0  0  0  0  0  0  0  0  0  0
    6.3588    1.0524   -0.5089 C   0  0  0  0  0  0  0  0  0  0  0  0
    6.0230    0.7763    0.8316 C   0  0  0  0  0  0  0  0  0  0  0  0
    4.9315    0.0189    1.1613 C   0  0  0  0  0  0  0  0  0  0  0  0
    4.0970   -0.5164    0.2539 C   0  0  0  0  0  0  0  0  0  0  0  0
    3.0054   -1.2807    0.6350 N   0  0  0  0  0  0  0  0  0  0  0  0
    2.6562   -2.5646   -0.0108 C   0  0  0  0  0  0  0  0  0  0  0  0
    1.3087   -2.0548   -0.5242 C   0  0  0  0  0  0  0  0  0  0  0  0
    0.6868   -1.7539    0.9684 C   0  0  2  0  0  0  0  0  0  0  0  0
    0.1158   -0.3078    0.5204 C   0  0  0  0  0  0  0  0  0  0  0  0
   -0.5032    0.3391    1.5470 N   0  0  0  0  0  0  0  0  0  0  0  0
   -1.8506   -0.2563    1.8892 C   0  0  0  0  0  0  0  0  0  0  0  0
   -2.5759   -0.1596    0.5577 C   0  0  0  0  0  0  0  0  0  0  0  0
   -2.1650   -0.7097   -0.6197 C   0  0  0  0  0  0  0  0  0  0  0  0
   -2.8223   -0.6776   -1.8134 C   0  0  0  0  0  0  0  0  0  0  0  0
   -4.0412   -0.0356   -1.9007 C   0  0  0  0  0  0  0  0  0  0  0  0
   -4.7611   -0.0657   -3.0449 F   0  0  0  0  0  0  0  0  0  0  0  0
   -4.5133    0.5555   -0.7354 C   0  0  0  0  0  0  0  0  0  0  0  0
   -5.6745    1.2863   -0.8396 C   0  0  0  0  0  0  0  0  0  0  0  0
   -6.0822    1.9538    0.3201 C   0  0  0  0  0  0  0  0  0  0  0  0
   -5.3385    1.8666    1.5013 C   0  0  0  0  0  0  0  0  0  0  0  0
   -4.2102    1.1592    1.5843 N   0  0  0  0  0  0  0  0  0  0  0  0
   -3.8142    0.4887    0.4326 C   0  0  0  0  0  0  0  0  0  0  0  0
    2.0281   -0.9971    1.5908 C   0  0  0  0  0  0  0  0  0  0  0  0
    4.3834   -0.2759   -1.0838 C   0  0  0  0  0  0  0  0  0  0  0  0
    5.4982    0.4910   -1.4351 C   0  0  0  0  0  0  0  0  0  0  0  0
  1  2  1  0
  2  3  2  0
  3  4  1  0
  4  5  2  0
  5  6  1  0
  6  7  1  0
  7  8  1  0
  8  9  1  0
  9 10  1  6
 10 11  1  0
 11 12  1  0
 12 13  1  0
 13 14  2  0
 14 15  1  0
 15 16  2  0
 16 17  1  0
 16 18  1  0
 18 19  2  0
 19 20  1  0
 20 21  2  0
 21 22  1  0
 22 23  2  0
  9 24  1  0
  5 25  1  0
 25 26  2  0
 26  2  1  0
 24  6  1  0
 23 13  1  0
 23 18  1  0
M  END
>  <zinc_id>  (13) 
ZINC000151425217

>  <smiles>  (13) 
Fc1ccc(N2CC[C@H](CNCc3ccc(F)c4cccnc34)C2)cc1

$$$$

     RDKit          3D

 26 29  0  0  0  0  0  0  0  0999 V2000
   -6.7524    1.0995    3.7726 C   0  0  0  0  0  0  0  0  0  0  0  0
   -5.7763    1.1834    2.6359 C   0  0  0  0  0  0  0  0  0  0  0  0
   -5.5366    2.3187    1.9395 N   0  0  0  0  0  0  0  0  0  0  0  0
   -4.6193    1.9803    1.0276 N   0  0  0  0  0  0  0  0  0  0  0  0
   -4.3228    0.6789    1.1791 C   0  0  0  0  0  0  0  0  0  0  0  0
   -3.3634   -0.1160    0.3904 C   0  0  0  0  0  0  0  0  0  0  0  0
   -2.6798    0.5234   -0.6230 C   0  0  0  0  0  0  0  0  0  0  0  0
   -1.7926   -0.2126   -1.3520 C   0  0  0  0  0  0  0  0  0  0  0  0
   -1.5386   -1.5448   -1.1409 C   0  0  0  0  0  0  0  0  0  0  0  0
   -0.6145   -2.2727   -1.9146 N   0  0  0  0  0  0  0  0  0  0  0  0
    0.1881   -1.7106   -2.9521 C   0  0  0  0  0  0  0  0  0  0  0  0
    1.1177   -0.6845   -2.4006 C   0  0  0  0  0  0  0  0  0  0  0  0
    1.0955    0.6792   -2.5966 C   0  0  0  0  0  0  0  0  0  0  0  0
    2.1190    1.2068   -1.9102 N   0  0  0  0  0  0  0  0  0  0  0  0
    2.8042    0.2713   -1.2809 N   0  0  0  0  0  0  0  0  0  0  0  0
    3.9688    0.4646   -0.4462 C   0  0  0  0  0  0  0  0  0  0  0  0
    4.1430   -0.2492    0.7208 C   0  0  0  0  0  0  0  0  0  0  0  0
    5.2542   -0.0655    1.5182 C   0  0  0  0  0  0  0  0  0  0  0  0
    6.2150    0.8513    1.1441 C   0  0  0  0  0  0  0  0  0  0  0  0
    7.2868    0.9890    1.9687 F   0  0  0  0  0  0  0  0  0  0  0  0
    6.0688    1.5752   -0.0105 C   0  0  0  0  0  0  0  0  0  0  0  0
    4.9467    1.3703   -0.7885 C   0  0  0  0  0  0  0  0  0  0  0  0
    2.2078   -0.8946   -1.5678 C   0  0  0  0  0  0  0  0  0  0  0  0
   -2.2391   -2.1647   -0.1157 C   0  0  0  0  0  0  0  0  0  0  0  0
   -3.1412   -1.4392    0.6342 C   0  0  0  0  0  0  0  0  0  0  0  0
   -5.0391    0.2030    2.1684 O   0  0  0  0  0  0  0  0  0  0  0  0
  1  2  1  0
  2  3  2  0
  3  4  1  0
  4  5  2  0
  5  6  1  0
  6  7  2  0
  7  8  1  0
  8  9  2  0
  9 10  1  0
 10 11  1  0
 11 12  1  0
 12 13  1  0
 13 14  2  0
 14 15  1  0
 15 16  1  0
 16 17  2  0
 17 18  1  0
 18 19  2  0
 19 20  1  0
 19 21  1  0
 21 22  2  0
 15 23  1  0
  9 24  1  0
 24 25  2  0
  5 26  1  0
 26  2  1  0
 25  6  1  0
 23 12  2  0
 22 16  1  0
M  END
>  <zinc_id>  (14) 
ZINC000151425228

>  <smiles>  (14) 
Cc1nnc(-c2ccc(NCc3cnn(-c4ccc(F)cc4)c3)cc2)o1

$$$$

     RDKit          3D

 22 24  0  0  0  0  0  0  0  0999 V2000
    4.8086    1.8663   -0.0844 C   0  0  0  0  0  0  0  0  0  0  0  0
    4.7523    1.3473   -0.2278 C   0  0  0  0  0  0  0  0  0  0  0  0
    5.0905    0.8114   -1.6443 C   0  0  0  0  0  0  0  0  0  0  0  0
    4.7885    0.1369    0.7365 C   0  0  0  0  0  0  0  0  0  0  0  0
    4.5775   -1.0886   -0.1212 C   0  0  0  0  0  0  0  0  0  0  0  0
    3.1313   -1.5443   -0.0926 C   0  0  0  0  0  0  0  0  0  0  0  0
    2.2804   -0.3261   -0.3143 C   0  0  0  0  0  0  0  0  0  0  0  0
    0.9216   -0.7300   -0.5180 N   0  0  0  0  0  0  0  0  0  0  0  0
   -0.1089    0.1480    0.0070 C   0  0  0  0  0  0  0  0  0  0  0  0
    0.1657    1.1903    0.6039 O   0  0  0  0  0  0  0  0  0  0  0  0
   -1.4208   -0.2960   -0.2256 N   0  0  0  0  0  0  0  0  0  0  0  0
   -1.7872   -1.5192   -0.9129 C   0  0  0  0  0  0  0  0  0  0  0  0
   -2.9498   -2.0758   -0.2474 C   0  0  0  0  0  0  0  0  0  0  0  0
   -4.3146   -1.1904   -0.5406 C   0  0  1  0  0  0  0  0  0  0  0  0
   -4.4896   -0.8420    0.9202 O   0  0  0  0  0  0  0  0  0  0  0  0
   -5.6241   -0.0728    1.0348 C   0  0  0  0  0  0  0  0  0  0  0  0
   -5.0569    1.3244    0.6942 C   0  0  0  0  0  0  0  0  0  0  0  0
   -4.6976    1.2697   -0.7066 C   0  0  0  0  0  0  0  0  0  0  0  0
   -3.5211    0.2467   -1.0576 C   0  0  1  0  0  0  0  0  0  0  0  0
   -2.5708    0.4910    0.2306 C   0  0  0  0  0  0  0  0  0  0  0  0
    2.4004    0.6106    0.8553 C   0  0  0  0  0  0  0  0  0  0  0  0
    3.6245    0.2427    1.6902 C   0  0  0  0  0  0  0  0  0  0  0  0
  1  2  1  0
  2  3  1  0
  2  4  1  0
  4  5  1  0
  5  6  1  0
  6  7  1  0
  7  8  1  0
  8  9  1  0
  9 10  2  0
  9 11  1  0
 11 12  1  0
 12 13  1  0
 14 13  1  1
 14 15  1  0
 15 16  1  0
 16 17  1  0
 17 18  1  0
 19 18  1  1
 19 20  1  0
  7 21  1  0
 21 22  1  0
 22  4  1  0
 20 11  1  0
 19 14  1  0
M  END
>  <zinc_id>  (15) 
ZINC000151425234

>  <smiles>  (15) 
CC(C)C1CCC(NC(=O)N2CC[C@H]3OCCC[C@H]3C2)CC1

$$$$

     RDKit          3D

 26 29  0  0  0  0  0  0  0  0999 V2000
    5.0448   -2.3305    1.4056 C   0  0  0  0  0  0  0  0  0  0  0  0
    4.0722   -1.4610    0.7710 C   0  0  0  0  0  0  0  0  0  0  0  0
    2.7655   -1.5842    0.8137 O   0  0  0  0  0  0  0  0  0  0  0  0
    2.1838   -0.6391    0.1396 C   0  0  0  0  0  0  0  0  0  0  0  0
    0.7281   -0.4875   -0.0131 C   0  0  0  0  0  0  0  0  0  0  0  0
   -0.0104   -1.3591    0.5667 O   0  0  0  0  0  0  0  0  0  0  0  0
    0.0868    0.4777   -0.7030 N   0  0  0  0  0  0  0  0  0  0  0  0
   -1.0311    1.0601   -1.1530 C   0  0  0  0  0  0  0  0  0  0  0  0
   -1.9036    0.1207   -2.1787 C   0  0  1  0  0  0  0  0  0  0  0  0
   -2.2621   -1.1398   -1.1513 C   0  0  0  0  0  0  0  0  0  0  0  0
   -3.3729    0.1140   -1.4300 C   0  0  2  0  0  0  0  0  0  0  0  0
   -4.4607   -0.5121   -2.1872 C   0  0  0  0  0  0  0  0  0  0  0  0
   -5.4027   -1.1950   -1.2238 C   0  0  0  0  0  0  0  0  0  0  0  0
   -4.9578   -1.1380    0.2039 C   0  0  0  0  0  0  0  0  0  0  0  0
   -4.4772    0.2020    0.6207 C   0  0  0  0  0  0  0  0  0  0  0  0
   -4.8797    0.7229    1.8305 C   0  0  0  0  0  0  0  0  0  0  0  0
   -4.4059    1.9785    2.1739 C   0  0  0  0  0  0  0  0  0  0  0  0
   -3.5715    2.6347    1.3081 C   0  0  0  0  0  0  0  0  0  0  0  0
   -3.1947    2.0882    0.1199 C   0  0  0  0  0  0  0  0  0  0  0  0
   -3.6358    0.8491   -0.2661 C   0  0  0  0  0  0  0  0  0  0  0  0
    3.1353    0.1640   -0.3860 C   0  0  0  0  0  0  0  0  0  0  0  0
    4.3562   -0.3480    0.0089 C   0  0  0  0  0  0  0  0  0  0  0  0
    5.9623    0.2674   -0.3651 S   0  0  0  0  0  0  0  0  0  0  0  0
    5.7629    1.6760   -1.3482 N   0  0  0  0  0  0  0  0  0  0  0  0
    6.7501   -0.7747   -1.0903 O   0  0  0  0  0  0  0  0  0  0  0  0
    6.7181    0.6137    0.8851 O   0  0  0  0  0  0  0  0  0  0  0  0
  1  2  1  0
  2  3  1  0
  3  4  1  0
  4  5  1  0
  5  6  2  0
  5  7  1  0
  7  8  1  0
  9  8  1  1
  9 10  1  0
 11 10  1  1
 11 12  1  0
 12 13  1  0
 13 14  1  0
 14 15  1  0
 15 16  2  0
 16 17  1  0
 17 18  2  0
 18 19  1  0
 19 20  2  0
  4 21  2  0
 21 22  1  0
 22 23  1  0
 23 24  1  0
 23 25  2  0
 23 26  2  0
 22  2  2  0
 11  9  1  0
 20 15  1  0
 20 11  1  0
M  END
>  <zinc_id>  (16) 
ZINC000151425237

>  <smiles>  (16) 
Cc1oc(C(=O)NC[C@H]2C[C@]23CCCc2ccccc23)cc1S(N)(=O)=O

$$$$

     RDKit          3D

 22 24  0  0  0  0  0  0  0  0999 V2000
   -2.0204    3.3440   -0.3623 C   0  0  0  0  0  0  0  0  0  0  0  0
   -2.5136    2.2145   -0.6376 C   0  0  0  0  0  0  0  0  0  0  0  0
   -2.5526    1.2748    0.6529 C   0  0  1  0  0  0  0  0  0  0  0  0
   -3.3688    0.0380   -0.0127 C   0  0  0  0  0  0  0  0  0  0  0  0
   -4.0686   -0.2345   -1.0734 C   0  0  0  0  0  0  0  0  0  0  0  0
   -4.5832   -1.5027   -0.9972 C   0  0  0  0  0  0  0  0  0  0  0  0
   -4.1062   -1.9728    0.2195 C   0  0  0  0  0  0  0  0  0  0  0  0
   -3.3696   -1.0213    0.7975 N   0  0  0  0  0  0  0  0  0  0  0  0
   -2.5302   -0.9536    2.0239 C   0  0  0  0  0  0  0  0  0  0  0  0
   -1.1430   -0.7283    1.3086 C   0  0  0  0  0  0  0  0  0  0  0  0
   -1.1999    0.6225    0.6441 N   0  0  0  0  0  0  0  0  0  0  0  0
    0.0198    1.1162    0.2752 C   0  0  0  0  0  0  0  0  0  0  0  0
    0.3287    2.3100   -0.0588 O   0  0  0  0  0  0  0  0  0  0  0  0
    1.1590    0.1864    0.2467 C   0  0  0  0  0  0  0  0  0  0  0  0
    2.4661    0.5770    0.0126 C   0  0  0  0  0  0  0  0  0  0  0  0
    3.2762   -0.5762    0.0998 C   0  0  0  0  0  0  0  0  0  0  0  0
    4.7614   -0.5135   -0.0564 C   0  0  0  0  0  0  0  0  0  0  0  0
    5.2779    0.9170    0.0611 C   0  0  0  0  0  0  0  0  0  0  0  0
    5.4283   -1.3617    0.9572 C   0  0  0  0  0  0  0  0  0  0  0  0
    5.0488   -1.0304   -1.4436 C   0  0  0  0  0  0  0  0  0  0  0  0
    2.4674   -1.5472    0.3518 N   0  0  0  0  0  0  0  0  0  0  0  0
    1.2223   -1.1583    0.4609 N   0  0  0  0  0  0  0  0  0  0  0  0
  1  2  1  0
  3  2  1  6
  3  4  1  0
  4  5  2  0
  5  6  1  0
  6  7  2  0
  7  8  1  0
  8  9  1  0
  9 10  1  0
 10 11  1  0
 11 12  1  0
 12 13  2  0
 12 14  1  0
 14 15  2  0
 15 16  1  0
 16 17  1  0
 17 18  1  0
 17 19  1  0
 17 20  1  0
 16 21  2  0
 21 22  1  0
 11  3  1  0
 22 14  1  0
  8  4  1  0
M  END
>  <zinc_id>  (17) 
ZINC000151425238

>  <smiles>  (17) 
CC[C@H]1c2cccn2CCN1C(=O)c1cc(C(C)(C)C)n[nH]1

$$$$

     RDKit          3D

 22 24  0  0  0  0  0  0  0  0999 V2000
    3.3747    2.8756   -1.2503 C   0  0  0  0  0  0  0  0  0  0  0  0
    4.6265    2.2150   -0.3753 C   0  0  2  0  0  0  0  0  0  0  0  0
    4.8453    0.9402   -1.4005 C   0  0  0  0  0  0  0  0  0  0  0  0
    3.9813   -0.0968   -0.9701 C   0  0  0  0  0  0  0  0  0  0  0  0
    2.7706    0.9218   -0.3986 C   0  0  1  0  0  0  0  0  0  0  0  0
    2.1495   -0.2381    0.5347 C   0  0  0  0  0  0  0  0  0  0  0  0
    2.5032   -0.4268    1.6653 O   0  0  0  0  0  0  0  0  0  0  0  0
    1.1445   -1.0146   -0.1089 N   0  0  0  0  0  0  0  0  0  0  0  0
    0.7623   -0.7433   -1.4629 C   0  0  0  0  0  0  0  0  0  0  0  0
   -0.6828   -1.0923   -1.7560 C   0  0  0  0  0  0  0  0  0  0  0  0
   -1.3864   -1.1237   -0.4741 N   0  0  0  0  0  0  0  0  0  0  0  0
   -2.5091   -0.2747   -0.3107 C   0  0  0  0  0  0  0  0  0  0  0  0
   -2.7229    0.6309   -1.3459 C   0  0  0  0  0  0  0  0  0  0  0  0
   -3.7682    1.5070   -1.2798 C   0  0  0  0  0  0  0  0  0  0  0  0
   -4.5885    1.4651   -0.1751 C   0  0  0  0  0  0  0  0  0  0  0  0
   -4.3957    0.5815    0.8545 C   0  0  0  0  0  0  0  0  0  0  0  0
   -3.3182   -0.3158    0.7776 C   0  0  0  0  0  0  0  0  0  0  0  0
   -3.1230   -1.2525    1.8513 C   0  0  0  0  0  0  0  0  0  0  0  0
   -3.0008   -1.9956    2.7320 N   0  0  0  0  0  0  0  0  0  0  0  0
   -0.9591   -1.9640    0.5901 C   0  0  0  0  0  0  0  0  0  0  0  0
    0.5455   -2.0784    0.6844 C   0  0  0  0  0  0  0  0  0  0  0  0
    3.7511    1.4796    0.6200 O   0  0  0  0  0  0  0  0  0  0  0  0
  2  1  1  6
  2  3  1  0
  3  4  1  0
  4  5  1  0
  5  6  1  1
  6  7  2  0
  6  8  1  0
  8  9  1  0
  9 10  1  0
 10 11  1  0
 11 12  1  0
 12 13  2  0
 13 14  1  0
 14 15  2  0
 15 16  1  0
 16 17  2  0
 17 18  1  0
 18 19  3  0
 11 20  1  0
 20 21  1  0
  5 22  1  0
 22  2  1  0
 21  8  1  0
 17 12  1  0
M  END
>  <zinc_id>  (18) 
ZINC000151425259

>  <smiles>  (18) 
C[C@@H]1CC[C@@H](C(=O)N2CCN(c3ccccc3C#N)CC2)O1

$$$$

     RDKit          3D

 22 24  0  0  0  0  0  0  0  0999 V2000
   -5.4974    1.6434   -0.9930 C   0  0  0  0  0  0  0  0  0  0  0  0
   -5.1867    1.5743   -0.3721 C   0  0  0  0  0  0  0  0  0  0  0  0
   -5.3249    2.5067    0.8402 C   0  0  0  0  0  0  0  0  0  0  0  0
   -3.9690    0.6688   -0.1800 C   0  0  0  0  0  0  0  0  0  0  0  0
   -3.4734    0.6737    1.2321 C   0  0  0  0  0  0  0  0  0  0  0  0
   -2.6798   -0.5984    1.4694 C   0  0  0  0  0  0  0  0  0  0  0  0
   -2.0998   -1.0694    0.2017 C   0  0  0  0  0  0  0  0  0  0  0  0
   -0.7746   -0.7572   -0.1034 N   0  0  0  0  0  0  0  0  0  0  0  0
    0.3269   -1.6349   -0.0637 C   0  0  0  0  0  0  0  0  0  0  0  0
    0.1258   -2.8390    0.2809 O   0  0  0  0  0  0  0  0  0  0  0  0
    1.6455   -1.2606   -0.3814 N   0  0  0  0  0  0  0  0  0  0  0  0
    2.7635   -2.1895   -0.3267 C   0  0  0  0  0  0  0  0  0  0  0  0
    3.9386   -1.5729    0.4090 C   0  0  0  0  0  0  0  0  0  0  0  0
    4.2458   -0.1728   -0.3905 C   0  0  2  0  0  0  0  0  0  0  0  0
    5.2048    0.3172    0.6707 O   0  0  0  0  0  0  0  0  0  0  0  0
    5.5895    1.5843    0.2496 C   0  0  0  0  0  0  0  0  0  0  0  0
    4.4429    2.5565    0.4526 C   0  0  0  0  0  0  0  0  0  0  0  0
    3.2612    2.0164   -0.3511 C   0  0  0  0  0  0  0  0  0  0  0  0
    2.9261    0.6050    0.3743 C   0  0  1  0  0  0  0  0  0  0  0  0
    1.8981    0.1198   -0.7852 C   0  0  0  0  0  0  0  0  0  0  0  0
   -3.0139   -1.4447   -0.8838 C   0  0  0  0  0  0  0  0  0  0  0  0
   -4.3492   -0.7267   -0.6380 C   0  0  0  0  0  0  0  0  0  0  0  0
  1  2  1  0
  2  3  1  0
  2  4  1  0
  4  5  1  0
  5  6  1  0
  6  7  1  0
  7  8  1  0
  8  9  1  0
  9 10  2  0
  9 11  1  0
 11 12  1  0
 12 13  1  0
 14 13  1  1
 14 15  1  0
 15 16  1  0
 16 17  1  0
 17 18  1  0
 19 18  1  6
 19 20  1  0
  7 21  1  0
 21 22  1  0
 22  4  1  0
 20 11  1  0
 19 14  1  0
M  END
>  <zinc_id>  (19) 
ZINC000151425279

>  <smiles>  (19) 
CC(C)C1CCC(NC(=O)N2CC[C@@H]3OCCC[C@H]3C2)CC1

$$$$

     RDKit          3D

 23 25  0  0  0  0  0  0  0  0999 V2000
    7.2314   -0.7198   -1.0966 C   0  0  0  0  0  0  0  0  0  0  0  0
    6.1069    0.1004   -0.8815 O   0  0  0  0  0  0  0  0  0  0  0  0
    5.2809   -0.1683    0.2100 C   0  0  0  0  0  0  0  0  0  0  0  0
    5.6278   -1.1539    0.9494 O   0  0  0  0  0  0  0  0  0  0  0  0
    4.1221    0.5389    0.5583 N   0  0  0  0  0  0  0  0  0  0  0  0
    3.3513    0.1711    1.7301 C   0  0  0  0  0  0  0  0  0  0  0  0
    1.9162    0.7204    1.4367 C   0  0  0  0  0  0  0  0  0  0  0  0
    1.6152    0.2400    0.0088 C   0  0  0  0  0  0  0  0  0  0  0  0
    0.2280    0.2143   -0.3139 N   0  0  0  0  0  0  0  0  0  0  0  0
   -0.4894   -0.6119    0.5938 C   0  0  0  0  0  0  0  0  0  0  0  0
   -1.8951   -0.8637    0.3012 C   0  0  0  0  0  0  0  0  0  0  0  0
   -2.3795   -2.1913    0.3256 C   0  0  0  0  0  0  0  0  0  0  0  0
   -3.6982   -2.4766    0.1266 C   0  0  0  0  0  0  0  0  0  0  0  0
   -4.6385   -1.4982   -0.1128 C   0  0  0  0  0  0  0  0  0  0  0  0
   -5.9225   -1.8012   -0.2859 F   0  0  0  0  0  0  0  0  0  0  0  0
   -4.1818   -0.1898   -0.1444 C   0  0  0  0  0  0  0  0  0  0  0  0
   -5.0892    0.8150   -0.4305 C   0  0  0  0  0  0  0  0  0  0  0  0
   -4.6441    2.1094   -0.5009 C   0  0  0  0  0  0  0  0  0  0  0  0
   -3.2855    2.3571   -0.2837 C   0  0  0  0  0  0  0  0  0  0  0  0
   -2.4004    1.4083   -0.0144 N   0  0  0  0  0  0  0  0  0  0  0  0
   -2.8504    0.1192    0.0585 C   0  0  0  0  0  0  0  0  0  0  0  0
    2.3429    1.2227   -0.9471 C   0  0  0  0  0  0  0  0  0  0  0  0
    3.6519    1.6580   -0.2832 C   0  0  0  0  0  0  0  0  0  0  0  0
  1  2  1  0
  2  3  1  0
  3  4  2  0
  3  5  1  0
  5  6  1  0
  6  7  1  0
  7  8  1  0
  8  9  1  0
  9 10  1  0
 10 11  1  0
 11 12  2  0
 12 13  1  0
 13 14  2  0
 14 15  1  0
 14 16  1  0
 16 17  2  0
 17 18  1  0
 18 19  2  0
 19 20  1  0
 20 21  2  0
  8 22  1  0
 22 23  1  0
 23  5  1  0
 21 11  1  0
 21 16  1  0
M  END
>  <zinc_id>  (20) 
ZINC000151425317

>  <smiles>  (20) 
COC(=O)N1CCC(NCc2ccc(F)c3cccnc23)CC1

$$$$

     RDKit          3D

 22 24  0  0  0  0  0  0  0  0999 V2000
    4.2144    2.1714   -0.9374 C   0  0  0  0  0  0  0  0  0  0  0  0
    4.6403    0.5910   -0.7961 C   0  0  1  0  0  0  0  0  0  0  0  0
    4.9894    0.7358    0.8031 C   0  0  0  0  0  0  0  0  0  0  0  0
    4.3836   -0.5012    1.3551 C   0  0  0  0  0  0  0  0  0  0  0  0
    3.7195   -1.1679    0.0029 C   0  0  1  0  0  0  0  0  0  0  0  0
    2.3943   -1.7046    0.6808 C   0  0  0  0  0  0  0  0  0  0  0  0
    2.4588   -2.8529    1.2046 O   0  0  0  0  0  0  0  0  0  0  0  0
    1.2110   -0.9457    0.6993 N   0  0  0  0  0  0  0  0  0  0  0  0
    0.0861   -1.6149    1.3761 C   0  0  0  0  0  0  0  0  0  0  0  0
   -0.9993   -1.7570    0.3245 C   0  0  0  0  0  0  0  0  0  0  0  0
   -1.3957   -0.3661    0.0281 N   0  0  0  0  0  0  0  0  0  0  0  0
   -2.7739   -0.0699    0.1351 C   0  0  0  0  0  0  0  0  0  0  0  0
   -3.6746   -1.0739    0.5049 C   0  0  0  0  0  0  0  0  0  0  0  0
   -5.0108   -0.8620    0.6275 C   0  0  0  0  0  0  0  0  0  0  0  0
   -5.5587    0.3773    0.3892 C   0  0  0  0  0  0  0  0  0  0  0  0
   -4.6858    1.3691    0.0261 C   0  0  0  0  0  0  0  0  0  0  0  0
   -3.3192    1.1518   -0.0991 C   0  0  0  0  0  0  0  0  0  0  0  0
   -2.5267    2.2669   -0.4826 C   0  0  0  0  0  0  0  0  0  0  0  0
   -1.9103    3.1856   -0.7936 N   0  0  0  0  0  0  0  0  0  0  0  0
   -0.4146    0.5851   -0.3392 C   0  0  0  0  0  0  0  0  0  0  0  0
    0.9579    0.3360    0.1725 C   0  0  0  0  0  0  0  0  0  0  0  0
    3.2142    0.1460   -0.4579 O   0  0  0  0  0  0  0  0  0  0  0  0
  2  1  1  6
  2  3  1  0
  3  4  1  0
  4  5  1  0
  5  6  1  1
  6  7  2  0
  6  8  1  0
  8  9  1  0
  9 10  1  0
 10 11  1  0
 11 12  1  0
 12 13  2  0
 13 14  1  0
 14 15  2  0
 15 16  1  0
 16 17  2  0
 17 18  1  0
 18 19  3  0
 11 20  1  0
 20 21  1  0
  5 22  1  0
 22  2  1  0
 21  8  1  0
 17 12  1  0
M  END
>  <zinc_id>  (21) 
ZINC000151425320

>  <smiles>  (21) 
C[C@H]1CC[C@@H](C(=O)N2CCN(c3ccccc3C#N)CC2)O1

$$$$

     RDKit          3D

 28 31  0  0  0  0  0  0  0  0999 V2000
    5.6504    3.2223   -1.4209 C   0  0  0  0  0  0  0  0  0  0  0  0
    4.9803    1.9126   -1.2905 C   0  0  0  0  0  0  0  0  0  0  0  0
    3.7280    1.7074   -0.7006 C   0  0  0  0  0  0  0  0  0  0  0  0
    3.4677    0.3564   -0.7800 C   0  0  0  0  0  0  0  0  0  0  0  0
    2.2894   -0.3520   -0.3044 C   0  0  0  0  0  0  0  0  0  0  0  0
    1.2326    0.3171    0.3240 C   0  0  0  0  0  0  0  0  0  0  0  0
    0.1248   -0.3712    0.7677 C   0  0  0  0  0  0  0  0  0  0  0  0
   -0.9868    0.2868    1.4195 C   0  0  0  0  0  0  0  0  0  0  0  0
   -0.9587    0.3999    2.6708 O   0  0  0  0  0  0  0  0  0  0  0  0
   -2.1072    0.8097    0.7021 N   0  0  0  0  0  0  0  0  0  0  0  0
   -2.2012    0.7127   -0.7409 C   0  0  0  0  0  0  0  0  0  0  0  0
   -3.4892   -0.0122   -1.0641 C   0  0  0  0  0  0  0  0  0  0  0  0
   -4.6893    0.6753   -0.4723 C   0  0  0  0  0  0  0  0  0  0  0  0
   -4.2992    1.8257    0.4274 C   0  0  1  0  0  0  0  0  0  0  0  0
   -3.7687    2.9313   -0.4922 C   0  0  0  0  0  0  0  0  0  0  0  0
   -5.4977    2.4076    1.1356 C   0  0  0  0  0  0  0  0  0  0  0  0
   -6.1388    1.4647    1.9324 O   0  0  0  0  0  0  0  0  0  0  0  0
   -3.1982    1.4617    1.3962 C   0  0  0  0  0  0  0  0  0  0  0  0
    0.0943   -1.7297    0.5728 C   0  0  0  0  0  0  0  0  0  0  0  0
   -0.8085   -2.7336    0.8663 C   0  0  0  0  0  0  0  0  0  0  0  0
   -2.1045   -2.5613    1.5378 C   0  0  0  0  0  0  0  0  0  0  0  0
   -0.2833   -3.9071    0.4240 N   0  0  0  0  0  0  0  0  0  0  0  0
    0.8822   -3.6762   -0.1194 O   0  0  0  0  0  0  0  0  0  0  0  0
    1.1488   -2.3985   -0.0544 C   0  0  0  0  0  0  0  0  0  0  0  0
    2.1898   -1.6847   -0.4611 N   0  0  0  0  0  0  0  0  0  0  0  0
    4.5619   -0.1947   -1.4083 C   0  0  0  0  0  0  0  0  0  0  0  0
    4.7442   -1.6249   -1.7197 C   0  0  0  0  0  0  0  0  0  0  0  0
    5.4366    0.7549   -1.6958 O   0  0  0  0  0  0  0  0  0  0  0  0
  1  2  1  0
  2  3  2  0
  3  4  1  0
  4  5  1  0
  5  6  2  0
  6  7  1  0
  7  8  1  0
  8  9  2  0
  8 10  1  0
 10 11  1  0
 11 12  1  0
 12 13  1  0
 13 14  1  0
 14 15  1  6
 14 16  1  0
 16 17  1  0
 14 18  1  0
  7 19  2  0
 19 20  1  0
 20 21  1  0
 20 22  2  0
 22 23  1  0
 23 24  1  0
 24 25  2  0
  4 26  2  0
 26 27  1  0
 26 28  1  0
 28  2  1  0
 25  5  1  0
 18 10  1  0
 24 19  1  0
M  END
>  <zinc_id>  (22) 
ZINC000151425334

>  <smiles>  (22) 
Cc1cc(-c2cc(C(=O)N3CCC[C@@](C)(CO)C3)c3c(C)noc3n2)c(C)o1

$$$$

     RDKit          3D

 19 21  0  0  0  0  0  0  0  0999 V2000
    5.8592    1.3186   -1.2175 C   0  0  0  0  0  0  0  0  0  0  0  0
    4.5909    0.8594   -1.5309 C   0  0  0  0  0  0  0  0  0  0  0  0
    4.2570   -0.1276   -0.6196 C   0  0  0  0  0  0  0  0  0  0  0  0
    2.9715   -0.8719   -0.6173 C   0  0  0  0  0  0  0  0  0  0  0  0
    2.0041   -0.1677    0.2093 N   0  0  0  0  0  0  0  0  0  0  0  0
    0.6812   -0.7112    0.3568 C   0  0  0  0  0  0  0  0  0  0  0  0
    0.2162   -1.8696   -0.2225 C   0  0  0  0  0  0  0  0  0  0  0  0
   -1.0926   -2.0204    0.1758 C   0  0  0  0  0  0  0  0  0  0  0  0
   -1.3998   -0.9940    0.9621 N   0  0  0  0  0  0  0  0  0  0  0  0
   -2.6504   -0.6874    1.6367 C   0  0  0  0  0  0  0  0  0  0  0  0
   -3.5452    0.1377    0.8147 C   0  0  0  0  0  0  0  0  0  0  0  0
   -4.4424   -0.4990   -0.0186 C   0  0  0  0  0  0  0  0  0  0  0  0
   -5.3209    0.1941   -0.8262 C   0  0  0  0  0  0  0  0  0  0  0  0
   -5.3328    1.5586   -0.8287 C   0  0  0  0  0  0  0  0  0  0  0  0
   -4.4492    2.2247   -0.0077 C   0  0  0  0  0  0  0  0  0  0  0  0
   -3.5737    1.5161    0.7970 C   0  0  0  0  0  0  0  0  0  0  0  0
   -0.3333   -0.2296    1.0560 N   0  0  0  0  0  0  0  0  0  0  0  0
    5.3023   -0.2410    0.2029 N   0  0  0  0  0  0  0  0  0  0  0  0
    6.2580    0.6103   -0.1407 N   0  0  0  0  0  0  0  0  0  0  0  0
  1  2  2  0
  2  3  1  0
  3  4  1  0
  4  5  1  0
  5  6  1  0
  6  7  1  0
  7  8  2  0
  8  9  1  0
  9 10  1  0
 10 11  1  0
 11 12  2  0
 12 13  1  0
 13 14  2  0
 14 15  1  0
 15 16  2  0
  9 17  1  0
  3 18  2  0
 18 19  1  0
 19  1  1  0
 17  6  2  0
 16 11  1  0
M  END
>  <zinc_id>  (23) 
ZINC000151425359

>  <smiles>  (23) 
c1ccc(Cn2ccc(NCc3cc[nH]n3)n2)cc1

$$$$

     RDKit          3D

 20 22  0  0  0  0  0  0  0  0999 V2000
    5.5206    2.8168   -0.9603 C   0  0  0  0  0  0  0  0  0  0  0  0
    4.7285    1.6142   -0.5168 C   0  0  0  0  0  0  0  0  0  0  0  0
    5.2469    0.4012   -0.2315 N   0  0  0  0  0  0  0  0  0  0  0  0
    4.2370   -0.3785    0.1172 N   0  0  0  0  0  0  0  0  0  0  0  0
    3.0960    0.3312    0.0533 C   0  0  0  0  0  0  0  0  0  0  0  0
    1.7365   -0.1477    0.3584 C   0  0  0  0  0  0  0  0  0  0  0  0
    0.6522    0.6760    0.2546 C   0  0  0  0  0  0  0  0  0  0  0  0
   -0.5999    0.1905    0.5484 C   0  0  0  0  0  0  0  0  0  0  0  0
   -0.7906   -1.1009    0.9436 C   0  0  0  0  0  0  0  0  0  0  0  0
   -2.0440   -1.6839    1.2656 N   0  0  0  0  0  0  0  0  0  0  0  0
   -3.2401   -0.9116    1.1200 C   0  0  0  0  0  0  0  0  0  0  0  0
   -3.4930   -0.5443   -0.2958 C   0  0  0  0  0  0  0  0  0  0  0  0
   -2.9013   -1.0237   -1.4479 C   0  0  0  0  0  0  0  0  0  0  0  0
   -3.4632   -0.3825   -2.5338 C   0  0  0  0  0  0  0  0  0  0  0  0
   -4.3803    0.4710   -2.0419 N   0  0  0  0  0  0  0  0  0  0  0  0
   -4.3968    0.3749   -0.7265 N   0  0  0  0  0  0  0  0  0  0  0  0
   -5.2492    1.1276    0.2060 C   0  0  0  0  0  0  0  0  0  0  0  0
    0.3270   -1.9230    1.0428 C   0  0  0  0  0  0  0  0  0  0  0  0
    1.5788   -1.4439    0.7509 C   0  0  0  0  0  0  0  0  0  0  0  0
    3.4349    1.5367   -0.3353 O   0  0  0  0  0  0  0  0  0  0  0  0
  1  2  1  0
  2  3  2  0
  3  4  1  0
  4  5  2  0
  5  6  1  0
  6  7  2  0
  7  8  1  0
  8  9  2  0
  9 10  1  0
 10 11  1  0
 11 12  1  0
 12 13  2  0
 13 14  1  0
 14 15  2  0
 15 16  1  0
 16 17  1  0
  9 18  1  0
 18 19  2  0
  5 20  1  0
 20  2  1  0
 19  6  1  0
 16 12  1  0
M  END
>  <zinc_id>  (24) 
ZINC000151425374

>  <smiles>  (24) 
Cc1nnc(-c2ccc(NCc3ccnn3C)cc2)o1

$$$$

     RDKit          3D

 28 31  0  0  0  0  0  0  0  0999 V2000
    4.8901    1.8274   -3.9652 C   0  0  0  0  0  0  0  0  0  0  0  0
    4.4733    1.1136   -2.7448 C   0  0  0  0  0  0  0  0  0  0  0  0
    3.2332    1.1373   -2.0937 C   0  0  0  0  0  0  0  0  0  0  0  0
    3.3198    0.3126   -0.9972 C   0  0  0  0  0  0  0  0  0  0  0  0
    2.2977   -0.0033    0.0049 C   0  0  0  0  0  0  0  0  0  0  0  0
    1.0260    0.5634   -0.0799 C   0  0  0  0  0  0  0  0  0  0  0  0
    0.0347    0.2956    0.8386 C   0  0  0  0  0  0  0  0  0  0  0  0
   -1.3011    0.8745    0.7685 C   0  0  0  0  0  0  0  0  0  0  0  0
   -1.4876    1.9625    1.3673 O   0  0  0  0  0  0  0  0  0  0  0  0
   -2.3731    0.2865    0.0759 N   0  0  0  0  0  0  0  0  0  0  0  0
   -2.1806   -0.9593   -0.6177 C   0  0  0  0  0  0  0  0  0  0  0  0
   -2.7069   -0.7954   -2.0204 C   0  0  0  0  0  0  0  0  0  0  0  0
   -4.0963   -0.2061   -2.0694 C   0  0  0  0  0  0  0  0  0  0  0  0
   -4.6726    0.0515   -0.7155 C   0  0  2  0  0  0  0  0  0  0  0  0
   -4.9237   -1.2535    0.0285 C   0  0  0  0  0  0  0  0  0  0  0  0
   -5.9558    0.8060   -0.8365 C   0  0  0  0  0  0  0  0  0  0  0  0
   -5.7078    2.0289   -1.4763 O   0  0  0  0  0  0  0  0  0  0  0  0
   -3.6648    0.9156    0.0512 C   0  0  0  0  0  0  0  0  0  0  0  0
    0.3691   -0.5733    1.8600 C   0  0  0  0  0  0  0  0  0  0  0  0
   -0.3241   -1.0638    2.9237 C   0  0  0  0  0  0  0  0  0  0  0  0
   -1.7314   -0.7341    3.2447 C   0  0  0  0  0  0  0  0  0  0  0  0
    0.5160   -1.8890    3.6053 N   0  0  0  0  0  0  0  0  0  0  0  0
    1.6723   -1.9251    3.0170 O   0  0  0  0  0  0  0  0  0  0  0  0
    1.6376   -1.1373    1.9428 C   0  0  0  0  0  0  0  0  0  0  0  0
    2.5603   -0.8404    1.0217 N   0  0  0  0  0  0  0  0  0  0  0  0
    4.5999   -0.1882   -1.0086 C   0  0  0  0  0  0  0  0  0  0  0  0
    5.2512   -1.1282   -0.0637 C   0  0  0  0  0  0  0  0  0  0  0  0
    5.2446    0.3141   -2.0612 O   0  0  0  0  0  0  0  0  0  0  0  0
  1  2  1  0
  2  3  2  0
  3  4  1  0
  4  5  1  0
  5  6  2  0
  6  7  1  0
  7  8  1  0
  8  9  2  0
  8 10  1  0
 10 11  1  0
 11 12  1  0
 12 13  1  0
 13 14  1  0
 14 15  1  1
 14 16  1  0
 16 17  1  0
 14 18  1  0
  7 19  2  0
 19 20  1  0
 20 21  1  0
 20 22  2  0
 22 23  1  0
 23 24  1  0
 24 25  2  0
  4 26  2  0
 26 27  1  0
 26 28  1  0
 28  2  1  0
 25  5  1  0
 18 10  1  0
 24 19  1  0
M  END
>  <zinc_id>  (25) 
ZINC000151425410

>  <smiles>  (25) 
Cc1cc(-c2cc(C(=O)N3CCC[C@](C)(CO)C3)c3c(C)noc3n2)c(C)o1

$$$$

     RDKit          3D

 25 28  0  0  0  0  0  0  0  0999 V2000
   -3.2171   -2.0509    2.5262 C   0  0  0  0  0  0  0  0  0  0  0  0
   -3.8655   -1.3607    1.6046 C   0  0  0  0  0  0  0  0  0  0  0  0
   -2.9870    0.0564    1.6035 C   0  0  2  0  0  0  0  0  0  0  0  0
   -3.8694    0.7832    0.4622 C   0  0  0  0  0  0  0  0  0  0  0  0
   -4.4030    2.0396    0.4941 C   0  0  0  0  0  0  0  0  0  0  0  0
   -5.0651    2.2023   -0.7055 C   0  0  0  0  0  0  0  0  0  0  0  0
   -4.8815    1.0145   -1.3868 C   0  0  0  0  0  0  0  0  0  0  0  0
   -4.1438    0.1699   -0.6387 N   0  0  0  0  0  0  0  0  0  0  0  0
   -3.6861   -1.2019   -0.9255 C   0  0  0  0  0  0  0  0  0  0  0  0
   -2.2494   -1.2101   -0.5211 C   0  0  0  0  0  0  0  0  0  0  0  0
   -1.8817   -0.4632    0.5887 N   0  0  0  0  0  0  0  0  0  0  0  0
   -0.5872   -0.0664    0.9800 C   0  0  0  0  0  0  0  0  0  0  0  0
   -0.3474    0.6282    2.0275 O   0  0  0  0  0  0  0  0  0  0  0  0
    0.5953   -0.4226    0.2089 C   0  0  0  0  0  0  0  0  0  0  0  0
    0.4379   -1.1651   -0.9280 C   0  0  0  0  0  0  0  0  0  0  0  0
    1.4882   -1.5636   -1.7419 C   0  0  0  0  0  0  0  0  0  0  0  0
    2.7646   -1.1645   -1.3448 C   0  0  0  0  0  0  0  0  0  0  0  0
    2.9845   -0.4196   -0.2151 C   0  0  0  0  0  0  0  0  0  0  0  0
    4.2902   -0.0127    0.1888 N   0  0  0  0  0  0  0  0  0  0  0  0
    5.4504   -0.8485    0.4029 C   0  0  0  0  0  0  0  0  0  0  0  0
    6.5907    0.1293    0.4475 C   0  0  0  0  0  0  0  0  0  0  0  0
    6.0409    1.3981    0.1745 O   0  0  0  0  0  0  0  0  0  0  0  0
    4.7099    1.3251    0.4649 C   0  0  0  0  0  0  0  0  0  0  0  0
    3.9496    2.2554    0.9022 O   0  0  0  0  0  0  0  0  0  0  0  0
    1.8819   -0.0524    0.5594 C   0  0  0  0  0  0  0  0  0  0  0  0
  1  2  1  0
  3  2  1  6
  3  4  1  0
  4  5  2  0
  5  6  1  0
  6  7  2  0
  7  8  1  0
  8  9  1  0
  9 10  1  0
 10 11  1  0
 11 12  1  0
 12 13  2  0
 12 14  1  0
 14 15  2  0
 15 16  1  0
 16 17  2  0
 17 18  1  0
 18 19  1  0
 19 20  1  0
 20 21  1  0
 21 22  1  0
 22 23  1  0
 23 24  2  0
 18 25  2  0
 11  3  1  0
 25 14  1  0
  8  4  1  0
 23 19  1  0
M  END
>  <zinc_id>  (26) 
ZINC000151425467

>  <smiles>  (26) 
CC[C@@H]1c2cccn2CCN1C(=O)c1cccc(N2CCOC2=O)c1

$$$$

     RDKit          3D

 28 30  0  0  0  0  0  0  0  0999 V2000
    0.0376   -1.0059   -2.0515 O   0  0  0  0  0  0  0  0  0  0  0  0
    0.2007   -1.9563   -0.7745 C   0  0  1  0  0  0  0  0  0  0  0  0
   -0.1212   -0.5717    0.1814 C   0  0  0  0  0  0  0  0  0  0  0  0
    0.9510    0.2845   -0.2810 N   0  0  0  0  0  0  0  0  0  0  0  0
    2.1173    0.4478   -0.0436 C   0  0  0  0  0  0  0  0  0  0  0  0
    3.4319   -0.0363   -0.1052 C   0  0  0  0  0  0  0  0  0  0  0  0
    3.8468   -1.3394   -0.4473 C   0  0  0  0  0  0  0  0  0  0  0  0
    5.1792   -1.7090   -0.3718 C   0  0  0  0  0  0  0  0  0  0  0  0
    6.1242   -0.8172    0.0440 C   0  0  0  0  0  0  0  0  0  0  0  0
    7.3899   -1.1965    0.1616 F   0  0  0  0  0  0  0  0  0  0  0  0
    5.7661    0.4824    0.3807 C   0  0  0  0  0  0  0  0  0  0  0  0
    6.6888    1.4658    0.7710 C   0  0  0  0  0  0  0  0  0  0  0  0
    6.2329    2.7384    1.0520 C   0  0  0  0  0  0  0  0  0  0  0  0
    4.9452    3.0861    0.9632 C   0  0  0  0  0  0  0  0  0  0  0  0
    4.0763    2.1251    0.5909 N   0  0  0  0  0  0  0  0  0  0  0  0
    4.4476    0.8505    0.3019 C   0  0  0  0  0  0  0  0  0  0  0  0
   -1.3851   -2.3393   -0.8759 C   0  0  0  0  0  0  0  0  0  0  0  0
   -2.0875   -1.2844   -0.4746 O   0  0  0  0  0  0  0  0  0  0  0  0
   -3.3062   -0.8103   -0.3682 C   0  0  0  0  0  0  0  0  0  0  0  0
   -3.5627    0.4159    0.2406 C   0  0  0  0  0  0  0  0  0  0  0  0
   -4.8216    0.9011    0.3227 C   0  0  0  0  0  0  0  0  0  0  0  0
   -5.8668    0.1366   -0.2227 C   0  0  0  0  0  0  0  0  0  0  0  0
   -7.2923    0.5516   -0.1454 C   0  0  0  0  0  0  0  0  0  0  0  0
   -7.3401    1.6307    0.7542 F   0  0  0  0  0  0  0  0  0  0  0  0
   -7.5797    1.0329   -1.4433 F   0  0  0  0  0  0  0  0  0  0  0  0
   -8.1287   -0.4351    0.2264 F   0  0  0  0  0  0  0  0  0  0  0  0
   -5.6056   -1.0749   -0.8240 C   0  0  0  0  0  0  0  0  0  0  0  0
   -4.3380   -1.5732   -0.9064 C   0  0  0  0  0  0  0  0  0  0  0  0
  2  1  1  6
  2  3  1  0
  3  4  1  0
  4  5  1  0
  5  6  1  0
  6  7  2  0
  7  8  1  0
  8  9  2  0
  9 10  1  0
  9 11  1  0
 11 12  2  0
 12 13  1  0
 13 14  2  0
 14 15  1  0
 15 16  2  0
  2 17  1  0
 17 18  1  0
 18 19  1  0
 19 20  2  0
 20 21  1  0
 21 22  2  0
 22 23  1  0
 23 24  1  0
 23 25  1  0
 23 26  1  0
 22 27  1  0
 27 28  2  0
 16  6  1  0
 28 19  1  0
 16 11  1  0
M  END
>  <zinc_id>  (27) 
ZINC000151425479

>  <smiles>  (27) 
O[C@@H](CNCc1ccc(F)c2cccnc12)COc1ccc(C(F)(F)F)cc1

$$$$

     RDKit          3D

 23 25  0  0  0  0  0  0  0  0999 V2000
    7.6524   -0.6849    0.2714 C   0  0  0  0  0  0  0  0  0  0  0  0
    6.7449    0.0028    1.1046 C   0  0  0  0  0  0  0  0  0  0  0  0
    7.1601    0.6061    2.1260 O   0  0  0  0  0  0  0  0  0  0  0  0
    5.3557    0.0314    0.8150 N   0  0  0  0  0  0  0  0  0  0  0  0
    4.3772    0.7157    1.6259 C   0  0  0  0  0  0  0  0  0  0  0  0
    3.0400    0.4987    0.9737 C   0  0  0  0  0  0  0  0  0  0  0  0
    2.1552   -0.5180    1.1975 C   0  0  0  0  0  0  0  0  0  0  0  0
    1.0209   -0.5221    0.5092 C   0  0  0  0  0  0  0  0  0  0  0  0
    0.8064    0.4874   -0.3792 C   0  0  0  0  0  0  0  0  0  0  0  0
   -0.3481    0.6975   -1.2405 C   0  0  0  0  0  0  0  0  0  0  0  0
   -0.3172    1.7245   -1.9924 O   0  0  0  0  0  0  0  0  0  0  0  0
   -1.4525   -0.1843   -1.2518 N   0  0  0  0  0  0  0  0  0  0  0  0
   -1.4232   -1.3370   -0.3688 C   0  0  0  0  0  0  0  0  0  0  0  0
   -2.9059   -1.5160    0.0008 C   0  0  0  0  0  0  0  0  0  0  0  0
   -3.4419   -0.1725    0.2666 C   0  0  2  0  0  0  0  0  0  0  0  0
   -2.5998    0.7032    0.9124 O   0  0  0  0  0  0  0  0  0  0  0  0
   -4.7476   -0.2011    1.0545 C   0  0  0  0  0  0  0  0  0  0  0  0
   -5.8833    0.4213    0.3140 C   0  0  0  0  0  0  0  0  0  0  0  0
   -6.1493   -0.4032   -0.9231 C   0  0  0  0  0  0  0  0  0  0  0  0
   -4.8310   -0.7219   -1.5944 C   0  0  0  0  0  0  0  0  0  0  0  0
   -3.8344    0.5315   -1.1570 C   0  0  2  0  0  0  0  0  0  0  0  0
   -2.5960   -0.0565   -2.0454 C   0  0  0  0  0  0  0  0  0  0  0  0
    2.2173    1.4199   -0.2191 S   0  0  0  0  0  0  0  0  0  0  0  0
  1  2  1  0
  2  3  2  0
  2  4  1  0
  4  5  1  0
  5  6  1  0
  6  7  2  0
  7  8  1  0
  8  9  2  0
  9 10  1  0
 10 11  2  0
 10 12  1  0
 12 13  1  0
 13 14  1  0
 14 15  1  0
 15 16  1  1
 15 17  1  0
 17 18  1  0
 18 19  1  0
 19 20  1  0
 21 20  1  6
 21 22  1  0
  9 23  1  0
 23  6  1  0
 22 12  1  0
 21 15  1  0
M  END
>  <zinc_id>  (28) 
ZINC000151425530

>  <smiles>  (28) 
CC(=O)NCc1ccc(C(=O)N2CC[C@]3(O)CCCC[C@@H]3C2)s1

$$$$

     RDKit          3D

 25 28  0  0  0  0  0  0  0  0999 V2000
   -4.1264    0.8916   -2.0217 C   0  0  0  0  0  0  0  0  0  0  0  0
   -3.4423    0.6269   -1.9336 C   0  0  0  0  0  0  0  0  0  0  0  0
   -2.8240    1.1280   -0.4396 C   0  0  1  0  0  0  0  0  0  0  0  0
   -3.9725    0.4260    0.4430 C   0  0  0  0  0  0  0  0  0  0  0  0
   -4.9610    1.1857    1.0967 C   0  0  0  0  0  0  0  0  0  0  0  0
   -5.7498    0.2476    1.7311 C   0  0  0  0  0  0  0  0  0  0  0  0
   -5.2037   -0.9716    1.4263 C   0  0  0  0  0  0  0  0  0  0  0  0
   -4.0987   -0.8221    0.6232 N   0  0  0  0  0  0  0  0  0  0  0  0
   -3.3003   -1.8961    0.1263 C   0  0  0  0  0  0  0  0  0  0  0  0
   -2.0863   -1.3573   -0.5001 C   0  0  0  0  0  0  0  0  0  0  0  0
   -1.7651   -0.0327   -0.4073 N   0  0  0  0  0  0  0  0  0  0  0  0
   -0.4511    0.4404   -0.2685 C   0  0  0  0  0  0  0  0  0  0  0  0
   -0.2511    1.6976   -0.1734 O   0  0  0  0  0  0  0  0  0  0  0  0
    0.7042   -0.4293   -0.2297 C   0  0  0  0  0  0  0  0  0  0  0  0
    0.6688   -1.7867   -0.3434 C   0  0  0  0  0  0  0  0  0  0  0  0
    1.8283   -2.5681   -0.2915 C   0  0  0  0  0  0  0  0  0  0  0  0
    3.0599   -1.9560   -0.1177 C   0  0  0  0  0  0  0  0  0  0  0  0
    3.1227   -0.5998   -0.0002 C   0  0  0  0  0  0  0  0  0  0  0  0
    4.3285    0.1532    0.1854 N   0  0  0  0  0  0  0  0  0  0  0  0
    5.4528   -0.1984    1.0154 C   0  0  0  0  0  0  0  0  0  0  0  0
    6.6129    0.4651    0.2972 C   0  0  0  0  0  0  0  0  0  0  0  0
    6.0256    1.5783   -0.3711 O   0  0  0  0  0  0  0  0  0  0  0  0
    4.6472    1.4038   -0.4133 C   0  0  0  0  0  0  0  0  0  0  0  0
    3.8163    2.2155   -0.8995 O   0  0  0  0  0  0  0  0  0  0  0  0
    1.9650    0.1584   -0.0557 C   0  0  0  0  0  0  0  0  0  0  0  0
  1  2  1  0
  3  2  1  6
  3  4  1  0
  4  5  2  0
  5  6  1  0
  6  7  2  0
  7  8  1  0
  8  9  1  0
  9 10  1  0
 10 11  1  0
 11 12  1  0
 12 13  2  0
 12 14  1  0
 14 15  2  0
 15 16  1  0
 16 17  2  0
 17 18  1  0
 18 19  1  0
 19 20  1  0
 20 21  1  0
 21 22  1  0
 22 23  1  0
 23 24  2  0
 18 25  2  0
 11  3  1  0
 25 14  1  0
  8  4  1  0
 23 19  1  0
M  END
>  <zinc_id>  (29) 
ZINC000151425543

>  <smiles>  (29) 
CC[C@H]1c2cccn2CCN1C(=O)c1cccc(N2CCOC2=O)c1

$$$$

     RDKit          3D

 28 30  0  0  0  0  0  0  0  0999 V2000
    1.3926   -0.8785    0.8435 O   0  0  0  0  0  0  0  0  0  0  0  0
    0.5593    0.2278    0.4603 C   0  0  2  0  0  0  0  0  0  0  0  0
   -0.8148   -0.1750    0.7633 C   0  0  0  0  0  0  0  0  0  0  0  0
   -1.2772   -1.4520    0.1461 N   0  0  0  0  0  0  0  0  0  0  0  0
   -2.5235   -1.5510    0.9357 C   0  0  0  0  0  0  0  0  0  0  0  0
   -3.6147   -1.2892    0.0258 C   0  0  0  0  0  0  0  0  0  0  0  0
   -3.9691   -1.9391   -1.1217 C   0  0  0  0  0  0  0  0  0  0  0  0
   -5.1024   -1.5057   -1.8508 C   0  0  0  0  0  0  0  0  0  0  0  0
   -5.8112   -0.3913   -1.3973 C   0  0  0  0  0  0  0  0  0  0  0  0
   -6.8246    0.1045   -2.0928 F   0  0  0  0  0  0  0  0  0  0  0  0
   -5.4355    0.2356   -0.2321 C   0  0  0  0  0  0  0  0  0  0  0  0
   -6.0157    1.4731    0.1004 C   0  0  0  0  0  0  0  0  0  0  0  0
   -5.3674    2.1158    1.1450 C   0  0  0  0  0  0  0  0  0  0  0  0
   -4.2964    1.7628    1.8396 C   0  0  0  0  0  0  0  0  0  0  0  0
   -3.7982    0.5615    1.5077 N   0  0  0  0  0  0  0  0  0  0  0  0
   -4.3974   -0.1735    0.4592 C   0  0  0  0  0  0  0  0  0  0  0  0
    0.6737    0.1210   -1.2063 C   0  0  0  0  0  0  0  0  0  0  0  0
    1.7865    0.9661   -1.3669 O   0  0  0  0  0  0  0  0  0  0  0  0
    3.0434    0.7120   -1.0298 C   0  0  0  0  0  0  0  0  0  0  0  0
    3.4401   -0.5766   -0.7232 C   0  0  0  0  0  0  0  0  0  0  0  0
    4.7202   -0.8967   -0.3502 C   0  0  0  0  0  0  0  0  0  0  0  0
    5.5893    0.1678   -0.2671 C   0  0  0  0  0  0  0  0  0  0  0  0
    6.9130   -0.1235    0.3031 C   0  0  0  0  0  0  0  0  0  0  0  0
    7.6648   -0.8102   -0.5693 F   0  0  0  0  0  0  0  0  0  0  0  0
    7.5257    1.0656    0.6969 F   0  0  0  0  0  0  0  0  0  0  0  0
    6.7102   -0.9363    1.4391 F   0  0  0  0  0  0  0  0  0  0  0  0
    5.2397    1.4502   -0.5565 C   0  0  0  0  0  0  0  0  0  0  0  0
    3.9895    1.7350   -0.9396 C   0  0  0  0  0  0  0  0  0  0  0  0
  2  1  1  1
  2  3  1  0
  3  4  1  0
  4  5  1  0
  5  6  1  0
  6  7  2  0
  7  8  1  0
  8  9  2  0
  9 10  1  0
  9 11  1  0
 11 12  2  0
 12 13  1  0
 13 14  2  0
 14 15  1  0
 15 16  2  0
  2 17  1  0
 17 18  1  0
 18 19  1  0
 19 20  2  0
 20 21  1  0
 21 22  2  0
 22 23  1  0
 23 24  1  0
 23 25  1  0
 23 26  1  0
 22 27  1  0
 27 28  2  0
 16  6  1  0
 28 19  1  0
 16 11  1  0
M  END
>  <zinc_id>  (30) 
ZINC000151425550

>  <smiles>  (30) 
O[C@H](CNCc1ccc(F)c2cccnc12)COc1ccc(C(F)(F)F)cc1

$$$$

     RDKit          3D

 24 26  0  0  0  0  0  0  0  0999 V2000
   -2.7633   -2.2107   -0.7039 O   0  0  0  0  0  0  0  0  0  0  0  0
   -1.9657   -1.3580   -0.2435 C   0  0  0  0  0  0  0  0  0  0  0  0
   -2.4626   -0.1632    0.1969 O   0  0  0  0  0  0  0  0  0  0  0  0
   -3.7856    0.1731    0.1709 C   0  0  0  0  0  0  0  0  0  0  0  0
   -4.5884   -0.1160    1.2445 C   0  0  0  0  0  0  0  0  0  0  0  0
   -5.9241    0.2291    1.2057 C   0  0  0  0  0  0  0  0  0  0  0  0
   -6.4635    0.8535    0.1186 C   0  0  0  0  0  0  0  0  0  0  0  0
   -5.6623    1.1460   -0.9617 C   0  0  0  0  0  0  0  0  0  0  0  0
   -4.3241    0.8003   -0.9230 C   0  0  0  0  0  0  0  0  0  0  0  0
   -3.3505    1.2023   -2.3385 Cl  0  0  0  0  0  0  0  0  0  0  0  0
   -0.5194   -1.7003   -0.2045 C   0  0  0  0  0  0  0  0  0  0  0  0
   -0.0636   -1.6488    1.2130 C   0  0  0  0  0  0  0  0  0  0  0  0
    0.5422   -0.2863    1.4755 C   0  0  0  0  0  0  0  0  0  0  0  0
    1.7040   -0.1621    0.6474 N   0  0  0  0  0  0  0  0  0  0  0  0
    2.9182    0.2954    1.1897 C   0  0  0  0  0  0  0  0  0  0  0  0
    2.9610    0.5918    2.4126 O   0  0  0  0  0  0  0  0  0  0  0  0
    4.1370    0.4462    0.4096 C   0  0  0  0  0  0  0  0  0  0  0  0
    5.2733    0.8976    1.0171 C   0  0  0  0  0  0  0  0  0  0  0  0
    6.4743    1.0720    0.3591 C   0  0  0  0  0  0  0  0  0  0  0  0
    6.5069    0.7661   -0.9925 C   0  0  0  0  0  0  0  0  0  0  0  0
    5.3394    0.3096   -1.5855 C   0  0  0  0  0  0  0  0  0  0  0  0
    4.1913    0.1535   -0.9109 N   0  0  0  0  0  0  0  0  0  0  0  0
    1.6272   -0.5068   -0.7427 C   0  0  0  0  0  0  0  0  0  0  0  0
    0.1984   -0.7841   -1.1382 C   0  0  0  0  0  0  0  0  0  0  0  0
  1  2  2  0
  2  3  1  0
  3  4  1  0
  4  5  2  0
  5  6  1  0
  6  7  2  0
  7  8  1  0
  8  9  2  0
  9 10  1  0
  2 11  1  0
 11 12  1  0
 12 13  1  0
 13 14  1  0
 14 15  1  0
 15 16  2  0
 15 17  1  0
 17 18  2  0
 18 19  1  0
 19 20  2  0
 20 21  1  0
 21 22  2  0
 14 23  1  0
 23 24  1  0
  9  4  1  0
 24 11  1  0
 22 17  1  0
M  END
>  <zinc_id>  (31) 
ZINC000151425581

>  <smiles>  (31) 
O=C(Oc1ccccc1Cl)C1CCN(C(=O)c2ccccn2)CC1

$$$$

     RDKit          3D

 29 32  0  0  0  0  0  0  0  0999 V2000
    3.1261    4.9749   -2.0053 C   0  0  0  0  0  0  0  0  0  0  0  0
    2.6440    4.1494   -1.3630 O   0  0  0  0  0  0  0  0  0  0  0  0
    3.1852    2.9026   -1.0881 C   0  0  0  0  0  0  0  0  0  0  0  0
    4.2617    2.5863   -1.5328 O   0  0  0  0  0  0  0  0  0  0  0  0
    2.3094    1.9326   -0.1639 C   0  0  2  0  0  0  0  0  0  0  0  0
    3.3670    0.6705   -0.1648 C   0  0  0  0  0  0  0  0  0  0  0  0
    2.4524   -0.2707    0.8444 C   0  0  2  0  0  0  0  0  0  0  0  0
    3.5172   -1.4793    0.9062 C   0  0  0  0  0  0  0  0  0  0  0  0
    3.7604   -1.9672    2.1732 C   0  0  0  0  0  0  0  0  0  0  0  0
    4.6716   -3.0068    2.2617 C   0  0  0  0  0  0  0  0  0  0  0  0
    5.2856   -3.5056    1.1289 C   0  0  0  0  0  0  0  0  0  0  0  0
    4.9931   -2.9672   -0.1088 C   0  0  0  0  0  0  0  0  0  0  0  0
    4.0751   -1.9152   -0.2251 C   0  0  0  0  0  0  0  0  0  0  0  0
    1.5852   -0.9292   -0.4024 C   0  0  0  0  0  0  0  0  0  0  0  0
    0.7993    0.2006   -0.7866 N   0  0  0  0  0  0  0  0  0  0  0  0
   -0.5899    0.2015   -0.5397 C   0  0  0  0  0  0  0  0  0  0  0  0
   -1.3223    1.1973   -0.8713 O   0  0  0  0  0  0  0  0  0  0  0  0
   -1.2523   -0.9478    0.1114 C   0  0  0  0  0  0  0  0  0  0  0  0
   -2.6642   -0.6665    0.2322 N   0  0  0  0  0  0  0  0  0  0  0  0
   -3.2478   -0.0709    1.2563 N   0  0  0  0  0  0  0  0  0  0  0  0
   -4.5846    0.0400    1.0545 C   0  0  0  0  0  0  0  0  0  0  0  0
   -5.6233    0.5660    1.7917 C   0  0  0  0  0  0  0  0  0  0  0  0
   -6.9052    0.5260    1.3007 C   0  0  0  0  0  0  0  0  0  0  0  0
   -7.1643   -0.0383    0.0710 C   0  0  0  0  0  0  0  0  0  0  0  0
   -6.1046   -0.5549   -0.6406 C   0  0  0  0  0  0  0  0  0  0  0  0
   -4.8480   -0.5079   -0.1434 N   0  0  0  0  0  0  0  0  0  0  0  0
   -3.6516   -0.9394   -0.6382 C   0  0  0  0  0  0  0  0  0  0  0  0
   -3.4910   -1.5054   -1.7372 O   0  0  0  0  0  0  0  0  0  0  0  0
    1.4159    1.3245   -1.4178 C   0  0  0  0  0  0  0  0  0  0  0  0
  1  2  1  0
  2  3  1  0
  3  4  2  0
  5  3  1  6
  5  6  1  0
  6  7  1  0
  7  8  1  6
  8  9  2  0
  9 10  1  0
 10 11  2  0
 11 12  1  0
 12 13  2  0
  7 14  1  0
 14 15  1  0
 15 16  1  0
 16 17  2  0
 16 18  1  0
 18 19  1  0
 19 20  1  0
 20 21  2  0
 21 22  1  0
 22 23  2  0
 23 24  1  0
 24 25  2  0
 25 26  1  0
 26 27  1  0
 27 28  2  0
 15 29  1  0
 29  5  1  0
 13  8  1  0
 27 19  1  0
 26 21  1  0
M  END
>  <zinc_id>  (32) 
ZINC000151425600

>  <smiles>  (32) 
COC(=O)[C@@H]1C[C@H](c2ccccc2)CN(C(=O)Cn2nc3ccccn3c2=O)C1

$$$$

     RDKit          3D

 28 30  0  0  0  0  0  0  0  0999 V2000
   -5.1355    1.6450   -2.3964 C   0  0  0  0  0  0  0  0  0  0  0  0
   -5.7422    0.9643   -1.6643 C   0  0  0  0  0  0  0  0  0  0  0  0
   -7.1163    0.8877   -1.5591 C   0  0  0  0  0  0  0  0  0  0  0  0
   -7.7492    0.0567   -0.6651 C   0  0  0  0  0  0  0  0  0  0  0  0
   -7.0642   -0.7812    0.2138 C   0  0  0  0  0  0  0  0  0  0  0  0
   -5.6660   -0.7073    0.1112 C   0  0  0  0  0  0  0  0  0  0  0  0
   -5.0445    0.1301   -0.7899 C   0  0  0  0  0  0  0  0  0  0  0  0
   -3.4678    0.1364   -0.8632 C   0  0  2  0  0  0  0  0  0  0  0  0
   -3.1731   -0.7095    0.4849 C   0  0  0  0  0  0  0  0  0  0  0  0
   -1.7544   -0.6178    0.5510 N   0  0  0  0  0  0  0  0  0  0  0  0
   -1.0245   -1.5580    1.2731 C   0  0  0  0  0  0  0  0  0  0  0  0
   -1.5994   -2.5088    1.8996 O   0  0  0  0  0  0  0  0  0  0  0  0
    0.4518   -1.5569    1.3891 C   0  0  0  0  0  0  0  0  0  0  0  0
    1.1750   -0.6478    0.7925 C   0  0  0  0  0  0  0  0  0  0  0  0
    2.6042   -0.5094    0.8065 C   0  0  0  0  0  0  0  0  0  0  0  0
    3.4197   -1.3564    1.5094 C   0  0  0  0  0  0  0  0  0  0  0  0
    4.7682   -1.2190    1.5127 C   0  0  0  0  0  0  0  0  0  0  0  0
    5.3368   -0.1814    0.7762 C   0  0  0  0  0  0  0  0  0  0  0  0
    6.7070   -0.0141    0.7642 O   0  0  0  0  0  0  0  0  0  0  0  0
    7.3158    0.9895    0.0276 C   0  0  0  0  0  0  0  0  0  0  0  0
    7.1506    0.8751   -1.4208 C   0  0  0  0  0  0  0  0  0  0  0  0
    7.6756    1.9254   -2.2435 N   0  0  0  0  0  0  0  0  0  0  0  0
    6.5754   -0.0968   -1.9309 O   0  0  0  0  0  0  0  0  0  0  0  0
    4.5080    0.6461    0.0868 C   0  0  0  0  0  0  0  0  0  0  0  0
    3.1514    0.5362    0.0622 C   0  0  0  0  0  0  0  0  0  0  0  0
   -1.1055    0.4623   -0.1214 C   0  0  0  0  0  0  0  0  0  0  0  0
   -1.9178    1.7121   -0.1820 C   0  0  0  0  0  0  0  0  0  0  0  0
   -3.2793    1.4975   -0.1822 O   0  0  0  0  0  0  0  0  0  0  0  0
  1  2  1  0
  2  3  2  0
  3  4  1  0
  4  5  2  0
  5  6  1  0
  6  7  2  0
  8  7  1  1
  8  9  1  0
  9 10  1  0
 10 11  1  0
 11 12  2  0
 11 13  1  0
 13 14  2  0
 14 15  1  0
 15 16  2  0
 16 17  1  0
 17 18  2  0
 18 19  1  0
 19 20  1  0
 20 21  1  0
 21 22  1  0
 21 23  2  0
 18 24  1  0
 24 25  2  0
 10 26  1  0
 26 27  1  0
 27 28  1  0
  7  2  1  0
 28  8  1  0
 25 15  1  0
M  END
>  <zinc_id>  (33) 
ZINC000151425603

>  <smiles>  (33) 
Cc1ccccc1[C@@H]1CN(C(=O)/C=C/c2ccc(OCC(N)=O)cc2)CCO1

$$$$

     RDKit          3D

 23 25  0  0  0  0  0  0  0  0999 V2000
    1.4864    6.9272    0.4132 C   0  0  0  0  0  0  0  0  0  0  0  0
    1.9597    5.9457   -0.5281 C   0  0  0  0  0  0  0  0  0  0  0  0
    2.8325    6.3077   -1.3862 O   0  0  0  0  0  0  0  0  0  0  0  0
    1.5099    4.5855   -0.5602 N   0  0  0  0  0  0  0  0  0  0  0  0
    2.0559    3.7045   -1.5447 C   0  0  0  0  0  0  0  0  0  0  0  0
    1.4316    2.3426   -1.3766 C   0  0  0  0  0  0  0  0  0  0  0  0
    1.8647    1.3052   -0.6024 C   0  0  0  0  0  0  0  0  0  0  0  0
    1.1511    0.1843   -0.6060 C   0  0  0  0  0  0  0  0  0  0  0  0
    0.0327    0.1309   -1.3773 C   0  0  0  0  0  0  0  0  0  0  0  0
   -0.9081   -0.9698   -1.5514 C   0  0  0  0  0  0  0  0  0  0  0  0
   -1.8721   -0.7451   -2.3570 O   0  0  0  0  0  0  0  0  0  0  0  0
   -0.7631   -2.2198   -0.8689 N   0  0  0  0  0  0  0  0  0  0  0  0
   -1.7723   -3.1927   -1.1846 C   0  0  0  0  0  0  0  0  0  0  0  0
   -1.8053   -4.2175   -0.0940 C   0  0  0  0  0  0  0  0  0  0  0  0
   -1.6237   -3.4687    1.1996 C   0  0  1  0  0  0  0  0  0  0  0  0
   -2.2734   -2.3206    1.3232 O   0  0  0  0  0  0  0  0  0  0  0  0
   -1.8728   -4.3513    2.4055 C   0  0  0  0  0  0  0  0  0  0  0  0
   -0.9674   -3.9502    3.5480 C   0  0  0  0  0  0  0  0  0  0  0  0
   -0.6937   -2.4720    3.5853 C   0  0  0  0  0  0  0  0  0  0  0  0
   -0.0672   -1.9530    2.3334 C   0  0  0  0  0  0  0  0  0  0  0  0
   -0.0030   -3.2514    1.3267 C   0  0  2  0  0  0  0  0  0  0  0  0
    0.2742   -2.3842   -0.0139 C   0  0  0  0  0  0  0  0  0  0  0  0
    0.0235    1.6878   -2.0835 S   0  0  0  0  0  0  0  0  0  0  0  0
  1  2  1  0
  2  3  2  0
  2  4  1  0
  4  5  1  0
  5  6  1  0
  6  7  2  0
  7  8  1  0
  8  9  2  0
  9 10  1  0
 10 11  2  0
 10 12  1  0
 12 13  1  0
 13 14  1  0
 14 15  1  0
 15 16  1  6
 15 17  1  0
 17 18  1  0
 18 19  1  0
 19 20  1  0
 21 20  1  1
 21 22  1  0
  9 23  1  0
 23  6  1  0
 22 12  1  0
 21 15  1  0
M  END
>  <zinc_id>  (34) 
ZINC000151425618

>  <smiles>  (34) 
CC(=O)NCc1ccc(C(=O)N2CC[C@@]3(O)CCCC[C@@H]3C2)s1

$$$$

     RDKit          3D

 25 27  0  0  0  0  0  0  0  0999 V2000
   -0.0047   -1.9787    1.9442 O   0  0  0  0  0  0  0  0  0  0  0  0
    0.0745   -1.2646    1.0615 C   0  0  0  0  0  0  0  0  0  0  0  0
    1.3432   -0.9962    0.4466 C   0  0  0  0  0  0  0  0  0  0  0  0
    2.4957   -1.5924    0.9048 C   0  0  0  0  0  0  0  0  0  0  0  0
    3.7218   -1.3312    0.3083 C   0  0  0  0  0  0  0  0  0  0  0  0
    3.8198   -0.4661   -0.7614 C   0  0  0  0  0  0  0  0  0  0  0  0
    5.0595   -0.1973   -1.3703 O   0  0  0  0  0  0  0  0  0  0  0  0
    5.8119    0.9046   -0.8405 C   0  0  0  0  0  0  0  0  0  0  0  0
    6.0698    0.6393    0.4831 F   0  0  0  0  0  0  0  0  0  0  0  0
    6.9323    1.1226   -1.5811 F   0  0  0  0  0  0  0  0  0  0  0  0
    5.0248    2.0537   -0.8751 F   0  0  0  0  0  0  0  0  0  0  0  0
    2.6633    0.1283   -1.2167 C   0  0  0  0  0  0  0  0  0  0  0  0
    1.4441   -0.1379   -0.6156 C   0  0  0  0  0  0  0  0  0  0  0  0
   -1.0907   -0.6439    0.5764 N   0  0  0  0  0  0  0  0  0  0  0  0
   -1.1977    0.2892   -0.5287 C   0  0  0  0  0  0  0  0  0  0  0  0
   -2.2259   -0.3650   -1.3534 C   0  0  0  0  0  0  0  0  0  0  0  0
   -3.2761   -0.9946   -0.3150 C   0  0  2  0  0  0  0  0  0  0  0  0
   -4.3631    0.5109   -0.2159 S   0  0  0  0  0  0  0  0  0  0  0  0
   -4.8034    0.7029   -1.6437 O   0  0  0  0  0  0  0  0  0  0  0  0
   -3.5381    1.6723    0.2528 O   0  0  0  0  0  0  0  0  0  0  0  0
   -5.6551    0.1984    0.8355 N   0  0  0  0  0  0  0  0  0  0  0  0
   -5.6138    1.0503    1.9854 C   0  0  0  0  0  0  0  0  0  0  0  0
   -4.4272    0.9814    2.9188 C   0  0  0  0  0  0  0  0  0  0  0  0
   -5.8029    0.4587    3.3457 C   0  0  0  0  0  0  0  0  0  0  0  0
   -2.4619   -0.7445    1.0117 C   0  0  0  0  0  0  0  0  0  0  0  0
  1  2  2  0
  2  3  1  0
  3  4  2  0
  4  5  1  0
  5  6  2  0
  6  7  1  0
  7  8  1  0
  8  9  1  0
  8 10  1  0
  8 11  1  0
  6 12  1  0
 12 13  2  0
  2 14  1  0
 14 15  1  0
 15 16  1  0
 16 17  1  0
 17 18  1  1
 18 19  2  0
 18 20  2  0
 18 21  1  0
 21 22  1  0
 22 23  1  0
 23 24  1  0
 17 25  1  0
 13  3  1  0
 25 14  1  0
 24 22  1  0
M  END
>  <zinc_id>  (35) 
ZINC000151425619

>  <smiles>  (35) 
O=C(c1ccc(OC(F)(F)F)cc1)N1CC[C@H](S(=O)(=O)NC2CC2)C1

$$$$

     RDKit          3D

 29 32  0  0  0  0  0  0  0  0999 V2000
   -4.3649   -4.1847    2.4792 C   0  0  0  0  0  0  0  0  0  0  0  0
   -3.4504   -3.7481    1.8232 O   0  0  0  0  0  0  0  0  0  0  0  0
   -3.4508   -2.6208    0.9840 C   0  0  0  0  0  0  0  0  0  0  0  0
   -4.4693   -1.9939    0.8858 O   0  0  0  0  0  0  0  0  0  0  0  0
   -2.0882   -2.3024    0.2537 C   0  0  1  0  0  0  0  0  0  0  0  0
   -2.5856   -0.9910   -0.5379 C   0  0  0  0  0  0  0  0  0  0  0  0
   -3.0014    0.0740    0.5934 C   0  0  2  0  0  0  0  0  0  0  0  0
   -3.6101    1.1252   -0.3802 C   0  0  0  0  0  0  0  0  0  0  0  0
   -3.4837    2.4276    0.0008 C   0  0  0  0  0  0  0  0  0  0  0  0
   -4.0135    3.4455   -0.8059 C   0  0  0  0  0  0  0  0  0  0  0  0
   -4.6425    3.0881   -1.9549 C   0  0  0  0  0  0  0  0  0  0  0  0
   -4.7727    1.7781   -2.3438 C   0  0  0  0  0  0  0  0  0  0  0  0
   -4.2386    0.7837   -1.5267 C   0  0  0  0  0  0  0  0  0  0  0  0
   -1.5283    0.7525    0.6753 C   0  0  0  0  0  0  0  0  0  0  0  0
   -0.7001   -0.3930    0.9755 N   0  0  0  0  0  0  0  0  0  0  0  0
    0.6892   -0.3229    0.7450 C   0  0  0  0  0  0  0  0  0  0  0  0
    1.4280   -1.3027    0.9973 O   0  0  0  0  0  0  0  0  0  0  0  0
    1.2776    0.9169    0.2013 C   0  0  0  0  0  0  0  0  0  0  0  0
    2.7126    0.7724    0.0431 N   0  0  0  0  0  0  0  0  0  0  0  0
    3.5914    1.0741    0.9805 N   0  0  0  0  0  0  0  0  0  0  0  0
    4.8361    0.8229    0.5099 C   0  0  0  0  0  0  0  0  0  0  0  0
    6.0880    0.9573    1.0625 C   0  0  0  0  0  0  0  0  0  0  0  0
    7.1962    0.6165    0.3330 C   0  0  0  0  0  0  0  0  0  0  0  0
    7.0678    0.1412   -0.9468 C   0  0  0  0  0  0  0  0  0  0  0  0
    5.8139    0.0108   -1.4891 C   0  0  0  0  0  0  0  0  0  0  0  0
    4.7423    0.3526   -0.7512 N   0  0  0  0  0  0  0  0  0  0  0  0
    3.4066    0.3378   -1.0000 C   0  0  0  0  0  0  0  0  0  0  0  0
    2.9045   -0.0469   -2.0981 O   0  0  0  0  0  0  0  0  0  0  0  0
   -1.3540   -1.5709    1.5061 C   0  0  0  0  0  0  0  0  0  0  0  0
  1  2  1  0
  2  3  1  0
  3  4  2  0
  5  3  1  1
  5  6  1  0
  6  7  1  0
  7  8  1  6
  8  9  2  0
  9 10  1  0
 10 11  2  0
 11 12  1  0
 12 13  2  0
  7 14  1  0
 14 15  1  0
 15 16  1  0
 16 17  2  0
 16 18  1  0
 18 19  1  0
 19 20  1  0
 20 21  2  0
 21 22  1  0
 22 23  2  0
 23 24  1  0
 24 25  2  0
 25 26  1  0
 26 27  1  0
 27 28  2  0
 15 29  1  0
 29  5  1  0
 13  8  1  0
 27 19  1  0
 26 21  1  0
M  END
>  <zinc_id>  (36) 
ZINC000151425666

>  <smiles>  (36) 
COC(=O)[C@H]1C[C@H](c2ccccc2)CN(C(=O)Cn2nc3ccccn3c2=O)C1

$$$$

     RDKit          3D

 28 30  0  0  0  0  0  0  0  0999 V2000
   -5.4388    1.4481    0.8671 C   0  0  0  0  0  0  0  0  0  0  0  0
   -5.9415    0.7555   -0.3628 C   0  0  0  0  0  0  0  0  0  0  0  0
   -7.2998    0.7737   -0.6845 C   0  0  0  0  0  0  0  0  0  0  0  0
   -7.6900    0.0571   -1.8145 C   0  0  0  0  0  0  0  0  0  0  0  0
   -6.7576   -0.6344   -2.5687 C   0  0  0  0  0  0  0  0  0  0  0  0
   -5.4017   -0.6222   -2.1986 C   0  0  0  0  0  0  0  0  0  0  0  0
   -5.0044    0.0800   -1.0997 C   0  0  0  0  0  0  0  0  0  0  0  0
   -3.4886    0.3408   -0.7716 C   0  0  1  0  0  0  0  0  0  0  0  0
   -3.2775   -1.1544    0.0939 C   0  0  0  0  0  0  0  0  0  0  0  0
   -1.8811   -0.9037    0.2844 N   0  0  0  0  0  0  0  0  0  0  0  0
   -1.3847   -0.3093    1.4649 C   0  0  0  0  0  0  0  0  0  0  0  0
   -2.0923    0.0220    2.4372 O   0  0  0  0  0  0  0  0  0  0  0  0
    0.0152   -0.0782    1.4991 C   0  0  0  0  0  0  0  0  0  0  0  0
    0.8832    0.4223    2.2785 C   0  0  0  0  0  0  0  0  0  0  0  0
    2.3257    0.4499    1.8874 C   0  0  0  0  0  0  0  0  0  0  0  0
    2.6554   -0.0045    0.5998 C   0  0  0  0  0  0  0  0  0  0  0  0
    3.9544   -0.0944    0.1820 C   0  0  0  0  0  0  0  0  0  0  0  0
    4.9870    0.2599    1.0224 C   0  0  0  0  0  0  0  0  0  0  0  0
    6.3168    0.1619    0.5958 O   0  0  0  0  0  0  0  0  0  0  0  0
    6.5893   -0.3201   -0.7145 C   0  0  0  0  0  0  0  0  0  0  0  0
    8.0015   -0.3815   -0.9711 C   0  0  0  0  0  0  0  0  0  0  0  0
    9.0431   -0.0353   -0.0423 N   0  0  0  0  0  0  0  0  0  0  0  0
    8.3626   -0.7852   -2.1418 O   0  0  0  0  0  0  0  0  0  0  0  0
    4.6772    0.6992    2.2654 C   0  0  0  0  0  0  0  0  0  0  0  0
    3.3463    0.7991    2.7101 C   0  0  0  0  0  0  0  0  0  0  0  0
   -1.0324   -1.2103   -0.8384 C   0  0  0  0  0  0  0  0  0  0  0  0
   -1.5446   -0.2577   -1.9538 C   0  0  0  0  0  0  0  0  0  0  0  0
   -2.9225   -0.3694   -2.0257 O   0  0  0  0  0  0  0  0  0  0  0  0
  1  2  1  0
  2  3  2  0
  3  4  1  0
  4  5  2  0
  5  6  1  0
  6  7  2  0
  8  7  1  6
  8  9  1  0
  9 10  1  0
 10 11  1  0
 11 12  2  0
 11 13  1  0
 13 14  2  0
 14 15  1  0
 15 16  2  0
 16 17  1  0
 17 18  2  0
 18 19  1  0
 19 20  1  0
 20 21  1  0
 21 22  1  0
 21 23  2  0
 18 24  1  0
 24 25  2  0
 10 26  1  0
 26 27  1  0
 27 28  1  0
  7  2  1  0
 28  8  1  0
 25 15  1  0
M  END
>  <zinc_id>  (37) 
ZINC000151425669

>  <smiles>  (37) 
Cc1ccccc1[C@H]1CN(C(=O)/C=C/c2ccc(OCC(N)=O)cc2)CCO1

$$$$

     RDKit          3D

 23 24  0  0  0  0  0  0  0  0999 V2000
    3.4864   -1.8189   -2.3127 C   0  0  0  0  0  0  0  0  0  0  0  0
    3.7789   -0.6999   -1.7520 C   0  0  0  0  0  0  0  0  0  0  0  0
    4.6708   -0.8359   -0.5434 C   0  0  0  0  0  0  0  0  0  0  0  0
    4.0946   -1.6604    0.5536 C   0  0  0  0  0  0  0  0  0  0  0  0
    2.7973   -1.0899    1.0812 C   0  0  0  0  0  0  0  0  0  0  0  0
    2.9858    0.2819    1.6263 C   0  0  0  0  0  0  0  0  0  0  0  0
    4.1414    0.7758    1.5898 O   0  0  0  0  0  0  0  0  0  0  0  0
    1.9185    1.0372    2.1772 N   0  0  0  0  0  0  0  0  0  0  0  0
    0.6123    0.4291    2.1996 C   0  0  0  0  0  0  0  0  0  0  0  0
   -0.1544    0.7463    0.9365 C   0  0  0  0  0  0  0  0  0  0  0  0
   -1.4580    0.1523    0.9337 N   0  0  0  0  0  0  0  0  0  0  0  0
   -2.3464    0.3239   -0.1430 C   0  0  0  0  0  0  0  0  0  0  0  0
   -2.0128    0.9989   -1.1161 O   0  0  0  0  0  0  0  0  0  0  0  0
   -3.7666   -0.3657   -0.0684 C   0  0  1  0  0  0  0  0  0  0  0  0
   -4.3279    0.1832   -1.4940 C   0  0  0  0  0  0  0  0  0  0  0  0
   -5.4925   -0.7074   -1.8487 C   0  0  0  0  0  0  0  0  0  0  0  0
   -4.9366   -1.8802   -2.6272 C   0  0  0  0  0  0  0  0  0  0  0  0
   -3.6294   -1.6879   -3.0483 O   0  0  0  0  0  0  0  0  0  0  0  0
   -2.7264   -1.6295   -2.0071 C   0  0  0  0  0  0  0  0  0  0  0  0
   -3.2771   -1.8118   -0.6628 C   0  0  0  0  0  0  0  0  0  0  0  0
    2.2096    2.3508    2.6705 C   0  0  0  0  0  0  0  0  0  0  0  0
    1.2001    3.3677    2.9457 C   0  0  0  0  0  0  0  0  0  0  0  0
    2.2326    3.5404    1.7948 C   0  0  0  0  0  0  0  0  0  0  0  0
  1  2  1  0
  2  3  1  0
  3  4  1  0
  4  5  1  0
  5  6  1  0
  6  7  2  0
  6  8  1  0
  8  9  1  0
  9 10  1  0
 10 11  1  0
 11 12  1  0
 12 13  2  0
 14 12  1  6
 14 15  1  0
 15 16  1  0
 16 17  1  0
 17 18  1  0
 18 19  1  0
 19 20  1  0
  8 21  1  0
 21 22  1  0
 22 23  1  0
 20 14  1  0
 23 21  1  0
M  END
>  <zinc_id>  (38) 
ZINC001356604507

>  <smiles>  (38) 
CCCCCC(=O)N(CCNC(=O)[C@H]1CCCOCC1)C1CC1

$$$$

     RDKit          3D

 26 28  0  0  0  0  0  0  0  0999 V2000
    6.9034    3.1497   -0.5407 C   0  0  0  0  0  0  0  0  0  0  0  0
    5.6056    2.5282   -0.1746 C   0  0  0  0  0  0  0  0  0  0  0  0
    4.7172    3.0697    0.6728 N   0  0  0  0  0  0  0  0  0  0  0  0
    3.6867    2.2300    0.7498 N   0  0  0  0  0  0  0  0  0  0  0  0
    3.9360    1.1768   -0.0442 C   0  0  0  0  0  0  0  0  0  0  0  0
    3.0619    0.0082   -0.2604 C   0  0  0  0  0  0  0  0  0  0  0  0
    1.8551   -0.0870    0.3778 C   0  0  0  0  0  0  0  0  0  0  0  0
    1.0672   -1.1926    0.1507 C   0  0  0  0  0  0  0  0  0  0  0  0
    1.4037   -2.2316   -0.6849 C   0  0  0  0  0  0  0  0  0  0  0  0
    0.5984   -3.3744   -0.9250 N   0  0  0  0  0  0  0  0  0  0  0  0
   -0.6842   -3.6584   -0.3954 C   0  0  0  0  0  0  0  0  0  0  0  0
   -1.7178   -2.6878   -0.7687 C   0  0  0  0  0  0  0  0  0  0  0  0
   -2.2949   -2.8272   -2.0356 C   0  0  0  0  0  0  0  0  0  0  0  0
   -3.2734   -1.9549   -2.4452 C   0  0  0  0  0  0  0  0  0  0  0  0
   -3.7153   -0.9315   -1.6434 C   0  0  0  0  0  0  0  0  0  0  0  0
   -3.1573   -0.7692   -0.3754 C   0  0  0  0  0  0  0  0  0  0  0  0
   -3.5504    0.2271    0.4728 O   0  0  0  0  0  0  0  0  0  0  0  0
   -4.5460    1.1804    0.1588 C   0  0  0  0  0  0  0  0  0  0  0  0
   -4.7405    2.1503    1.3263 C   0  0  0  0  0  0  0  0  0  0  0  0
   -3.4992    2.7703    1.5194 F   0  0  0  0  0  0  0  0  0  0  0  0
   -5.0300    1.4791    2.4967 F   0  0  0  0  0  0  0  0  0  0  0  0
   -5.6274    3.1363    1.0232 F   0  0  0  0  0  0  0  0  0  0  0  0
   -2.1814   -1.6622   -0.0029 C   0  0  0  0  0  0  0  0  0  0  0  0
    2.6425   -2.1139   -1.3276 C   0  0  0  0  0  0  0  0  0  0  0  0
    3.4374   -1.0114   -1.1065 C   0  0  0  0  0  0  0  0  0  0  0  0
    5.1026    1.3958   -0.5829 O   0  0  0  0  0  0  0  0  0  0  0  0
  1  2  1  0
  2  3  2  0
  3  4  1  0
  4  5  2  0
  5  6  1  0
  6  7  2  0
  7  8  1  0
  8  9  2  0
  9 10  1  0
 10 11  1  0
 11 12  1  0
 12 13  2  0
 13 14  1  0
 14 15  2  0
 15 16  1  0
 16 17  1  0
 17 18  1  0
 18 19  1  0
 19 20  1  0
 19 21  1  0
 19 22  1  0
 16 23  2  0
  9 24  1  0
 24 25  2  0
  5 26  1  0
 26  2  1  0
 25  6  1  0
 23 12  1  0
M  END
>  <zinc_id>  (39) 
ZINC000151425686

>  <smiles>  (39) 
Cc1nnc(-c2ccc(NCc3cccc(OCC(F)(F)F)c3)cc2)o1

$$$$

     RDKit          3D

 23 25  0  0  0  0  0  0  0  0999 V2000
   -7.4474    0.3603   -0.7796 C   0  0  0  0  0  0  0  0  0  0  0  0
   -6.3835   -0.4367   -0.8005 C   0  0  0  0  0  0  0  0  0  0  0  0
   -6.5242   -1.6408   -1.2048 O   0  0  0  0  0  0  0  0  0  0  0  0
   -5.1100   -0.0268   -0.4016 N   0  0  0  0  0  0  0  0  0  0  0  0
   -3.9159   -0.8355   -0.3984 C   0  0  0  0  0  0  0  0  0  0  0  0
   -2.7633   -0.0412    0.0942 C   0  0  0  0  0  0  0  0  0  0  0  0
   -2.8279    1.2584    0.4848 C   0  0  0  0  0  0  0  0  0  0  0  0
   -1.7345    1.8582    0.9042 C   0  0  0  0  0  0  0  0  0  0  0  0
   -0.5732    1.1362    0.9269 C   0  0  0  0  0  0  0  0  0  0  0  0
    0.7708    1.5674    1.3473 C   0  0  0  0  0  0  0  0  0  0  0  0
    0.8890    2.7542    1.7418 O   0  0  0  0  0  0  0  0  0  0  0  0
    1.8833    0.7169    1.3196 N   0  0  0  0  0  0  0  0  0  0  0  0
    3.2019    1.1190    1.7256 C   0  0  0  0  0  0  0  0  0  0  0  0
    4.0324    1.0921    0.4456 C   0  0  0  0  0  0  0  0  0  0  0  0
    3.9655   -0.2621   -0.2086 C   0  0  2  0  0  0  0  0  0  0  0  0
    4.4073   -1.2784    0.5732 O   0  0  0  0  0  0  0  0  0  0  0  0
    4.7357   -0.1911   -1.5082 C   0  0  0  0  0  0  0  0  0  0  0  0
    4.1204   -1.1239   -2.5319 C   0  0  0  0  0  0  0  0  0  0  0  0
    3.5324   -2.3466   -1.9250 C   0  0  0  0  0  0  0  0  0  0  0  0
    2.5465   -2.1204   -0.8454 C   0  0  0  0  0  0  0  0  0  0  0  0
    2.4263   -0.5179   -0.6292 C   0  0  1  0  0  0  0  0  0  0  0  0
    1.8791   -0.6537    0.8921 C   0  0  0  0  0  0  0  0  0  0  0  0
   -1.1107   -0.3872    0.3385 S   0  0  0  0  0  0  0  0  0  0  0  0
  1  2  1  0
  2  3  2  0
  2  4  1  0
  4  5  1  0
  5  6  1  0
  6  7  2  0
  7  8  1  0
  8  9  2  0
  9 10  1  0
 10 11  2  0
 10 12  1  0
 12 13  1  0
 13 14  1  0
 14 15  1  0
 15 16  1  1
 15 17  1  0
 17 18  1  0
 18 19  1  0
 19 20  1  0
 21 20  1  6
 21 22  1  0
  9 23  1  0
 23  6  1  0
 22 12  1  0
 21 15  1  0
M  END
>  <zinc_id>  (40) 
ZINC000151425702

>  <smiles>  (40) 
CC(=O)NCc1ccc(C(=O)N2CC[C@]3(O)CCCC[C@H]3C2)s1

$$$$

     RDKit          3D

 25 27  0  0  0  0  0  0  0  0999 V2000
    0.1013   -2.5702   -0.3672 O   0  0  0  0  0  0  0  0  0  0  0  0
    0.1102   -1.6301   -0.5102 C   0  0  0  0  0  0  0  0  0  0  0  0
    1.3971   -0.9282   -0.5298 C   0  0  0  0  0  0  0  0  0  0  0  0
    2.5990   -1.5685   -0.3502 C   0  0  0  0  0  0  0  0  0  0  0  0
    3.8177   -0.9039   -0.3688 C   0  0  0  0  0  0  0  0  0  0  0  0
    3.8437    0.4534   -0.5743 C   0  0  0  0  0  0  0  0  0  0  0  0
    5.0613    1.1118   -0.5920 O   0  0  0  0  0  0  0  0  0  0  0  0
    5.5997    1.6365    0.6314 C   0  0  0  0  0  0  0  0  0  0  0  0
    5.7811    0.5968    1.5298 F   0  0  0  0  0  0  0  0  0  0  0  0
    4.6979    2.5715    1.0904 F   0  0  0  0  0  0  0  0  0  0  0  0
    6.7984    2.2513    0.4258 F   0  0  0  0  0  0  0  0  0  0  0  0
    2.6594    1.1232   -0.7572 C   0  0  0  0  0  0  0  0  0  0  0  0
    1.4470    0.4271   -0.7334 C   0  0  0  0  0  0  0  0  0  0  0  0
   -1.1068   -0.9109   -0.7028 N   0  0  0  0  0  0  0  0  0  0  0  0
   -2.4248   -1.5381   -0.6968 C   0  0  0  0  0  0  0  0  0  0  0  0
   -3.1700   -0.6084   -1.5847 C   0  0  0  0  0  0  0  0  0  0  0  0
   -2.7505    0.7998   -1.0207 C   0  0  1  0  0  0  0  0  0  0  0  0
   -3.2748    0.5802    0.7343 S   0  0  0  0  0  0  0  0  0  0  0  0
   -3.0959    1.9914    1.2936 O   0  0  0  0  0  0  0  0  0  0  0  0
   -2.4151   -0.2923    1.4967 O   0  0  0  0  0  0  0  0  0  0  0  0
   -4.9517    0.2592    0.8032 N   0  0  0  0  0  0  0  0  0  0  0  0
   -5.7047    1.3684    0.2608 C   0  0  0  0  0  0  0  0  0  0  0  0
   -7.2272    1.1130    0.3068 C   0  0  0  0  0  0  0  0  0  0  0  0
   -6.5768    2.1849    1.1391 C   0  0  0  0  0  0  0  0  0  0  0  0
   -1.2155    0.4892   -0.9237 C   0  0  0  0  0  0  0  0  0  0  0  0
  1  2  2  0
  2  3  1  0
  3  4  2  0
  4  5  1  0
  5  6  2  0
  6  7  1  0
  7  8  1  0
  8  9  1  0
  8 10  1  0
  8 11  1  0
  6 12  1  0
 12 13  2  0
  2 14  1  0
 14 15  1  0
 15 16  1  0
 16 17  1  0
 17 18  1  1
 18 19  2  0
 18 20  2  0
 18 21  1  0
 21 22  1  0
 22 23  1  0
 23 24  1  0
 17 25  1  0
 13  3  1  0
 25 14  1  0
 24 22  1  0
M  END
>  <zinc_id>  (41) 
ZINC000151425704

>  <smiles>  (41) 
O=C(c1ccc(OC(F)(F)F)cc1)N1CC[C@@H](S(=O)(=O)NC2CC2)C1

$$$$

     RDKit          3D

 29 32  0  0  0  0  0  0  0  0999 V2000
   -5.2744    0.9254    3.1109 C   0  0  0  0  0  0  0  0  0  0  0  0
   -4.0556    0.8312    2.3949 O   0  0  0  0  0  0  0  0  0  0  0  0
   -3.4032    1.9351    2.0765 C   0  0  0  0  0  0  0  0  0  0  0  0
   -3.8227    3.0767    2.3852 O   0  0  0  0  0  0  0  0  0  0  0  0
   -2.0206    1.9751    1.2726 C   0  0  2  0  0  0  0  0  0  0  0  0
   -2.6295    1.3146   -0.0892 C   0  0  0  0  0  0  0  0  0  0  0  0
   -3.0019   -0.2083    0.3837 C   0  0  1  0  0  0  0  0  0  0  0  0
   -3.7511   -0.6189   -0.9269 C   0  0  0  0  0  0  0  0  0  0  0  0
   -4.5094    0.2370   -1.6374 C   0  0  0  0  0  0  0  0  0  0  0  0
   -5.1505   -0.1722   -2.7749 C   0  0  0  0  0  0  0  0  0  0  0  0
   -5.0294   -1.4529   -3.2034 C   0  0  0  0  0  0  0  0  0  0  0  0
   -4.2670   -2.3534   -2.5080 C   0  0  0  0  0  0  0  0  0  0  0  0
   -3.6102   -1.9147   -1.3334 C   0  0  0  0  0  0  0  0  0  0  0  0
   -1.5306   -0.8097   -0.0701 C   0  0  0  0  0  0  0  0  0  0  0  0
   -0.6758   -0.0491    0.8222 N   0  0  0  0  0  0  0  0  0  0  0  0
    0.7343    0.0398    0.6679 C   0  0  0  0  0  0  0  0  0  0  0  0
    1.4386    0.7113    1.4656 O   0  0  0  0  0  0  0  0  0  0  0  0
    1.4592   -0.6465   -0.4328 C   0  0  0  0  0  0  0  0  0  0  0  0
    2.8774   -0.4004   -0.3695 N   0  0  0  0  0  0  0  0  0  0  0  0
    3.6191    0.5451   -0.9027 N   0  0  0  0  0  0  0  0  0  0  0  0
    4.9122    0.3985   -0.5876 C   0  0  0  0  0  0  0  0  0  0  0  0
    6.0870    1.0770   -0.8643 C   0  0  0  0  0  0  0  0  0  0  0  0
    7.3102    0.6602   -0.3735 C   0  0  0  0  0  0  0  0  0  0  0  0
    7.3155   -0.4788    0.4172 C   0  0  0  0  0  0  0  0  0  0  0  0
    6.1502   -1.1587    0.6963 C   0  0  0  0  0  0  0  0  0  0  0  0
    4.9788   -0.7016    0.1861 N   0  0  0  0  0  0  0  0  0  0  0  0
    3.7302   -1.1852    0.3154 C   0  0  0  0  0  0  0  0  0  0  0  0
    3.4318   -2.2060    0.9740 O   0  0  0  0  0  0  0  0  0  0  0  0
   -1.3126    0.6294    1.8946 C   0  0  0  0  0  0  0  0  0  0  0  0
  1  2  1  0
  2  3  1  0
  3  4  2  0
  5  3  1  1
  5  6  1  0
  6  7  1  0
  7  8  1  6
  8  9  2  0
  9 10  1  0
 10 11  2  0
 11 12  1  0
 12 13  2  0
  7 14  1  0
 14 15  1  0
 15 16  1  0
 16 17  2  0
 16 18  1  0
 18 19  1  0
 19 20  1  0
 20 21  2  0
 21 22  1  0
 22 23  2  0
 23 24  1  0
 24 25  2  0
 25 26  1  0
 26 27  1  0
 27 28  2  0
 15 29  1  0
 29  5  1  0
 13  8  1  0
 27 19  1  0
 26 21  1  0
M  END
>  <zinc_id>  (42) 
ZINC000151425730

>  <smiles>  (42) 
COC(=O)[C@@H]1C[C@@H](c2ccccc2)CN(C(=O)Cn2nc3ccccn3c2=O)C1

$$$$

     RDKit          3D

 25 27  0  0  0  0  0  0  0  0999 V2000
    6.2850    2.3910   -2.0234 C   0  0  0  0  0  0  0  0  0  0  0  0
    7.0315    1.5203   -1.0743 C   0  0  0  0  0  0  0  0  0  0  0  0
    6.4080    0.2738   -0.9791 O   0  0  0  0  0  0  0  0  0  0  0  0
    5.0975    0.1488   -0.5446 C   0  0  0  0  0  0  0  0  0  0  0  0
    4.4604   -1.0711   -0.4424 C   0  0  0  0  0  0  0  0  0  0  0  0
    3.1551   -1.1991   -0.0100 C   0  0  0  0  0  0  0  0  0  0  0  0
    2.4987   -0.0532    0.3212 C   0  0  0  0  0  0  0  0  0  0  0  0
    1.1351   -0.0294    0.7877 N   0  0  0  0  0  0  0  0  0  0  0  0
    0.3737   -1.2375    0.9331 C   0  0  0  0  0  0  0  0  0  0  0  0
    1.0073   -2.2790    0.6195 O   0  0  0  0  0  0  0  0  0  0  0  0
   -0.9646   -1.2656    1.3861 N   0  0  0  0  0  0  0  0  0  0  0  0
   -1.8028   -2.3649    1.5679 C   0  0  0  0  0  0  0  0  0  0  0  0
   -2.7368   -1.9777    2.6562 C   0  0  0  0  0  0  0  0  0  0  0  0
   -2.4011   -0.6115    3.1048 C   0  0  0  0  0  0  0  0  0  0  0  0
   -1.7122    0.0417    1.7637 C   0  0  2  0  0  0  0  0  0  0  0  0
   -2.9114   -0.0477    0.7750 C   0  0  0  0  0  0  0  0  0  0  0  0
   -3.7296   -0.9714    0.4059 N   0  0  0  0  0  0  0  0  0  0  0  0
   -4.5704   -0.5210   -0.4687 O   0  0  0  0  0  0  0  0  0  0  0  0
   -4.3331    0.7346   -0.7113 C   0  0  0  0  0  0  0  0  0  0  0  0
   -5.0894    1.5663   -1.6490 C   0  0  0  0  0  0  0  0  0  0  0  0
   -5.9764    2.5775   -1.0389 C   0  0  0  0  0  0  0  0  0  0  0  0
   -5.5545    0.9220   -2.8794 C   0  0  0  0  0  0  0  0  0  0  0  0
   -3.2649    1.0418    0.0888 N   0  0  0  0  0  0  0  0  0  0  0  0
    3.1625    1.1497    0.2083 C   0  0  0  0  0  0  0  0  0  0  0  0
    4.4325    1.2615   -0.2136 N   0  0  0  0  0  0  0  0  0  0  0  0
  1  2  1  0
  2  3  1  0
  3  4  1  0
  4  5  2  0
  5  6  1  0
  6  7  2  0
  7  8  1  0
  8  9  1  0
  9 10  2  0
  9 11  1  0
 11 12  1  0
 12 13  1  0
 13 14  1  0
 14 15  1  0
 15 16  1  6
 16 17  2  0
 17 18  1  0
 18 19  1  0
 19 20  1  0
 20 21  1  0
 20 22  1  0
 19 23  2  0
  7 24  1  0
 24 25  2  0
 25  4  1  0
 15 11  1  0
 23 16  1  0
M  END
>  <zinc_id>  (43) 
ZINC000151425745

>  <smiles>  (43) 
CCOc1ccc(NC(=O)N2CCC[C@@H]2c2noc(C(C)C)n2)cn1

$$$$

     RDKit          3D

 23 24  0  0  0  0  0  0  0  0999 V2000
    5.1229    1.8654   -0.9179 C   0  0  0  0  0  0  0  0  0  0  0  0
    5.6506    2.8951   -0.0981 C   0  0  0  0  0  0  0  0  0  0  0  0
    5.7423    2.5910    1.3647 C   0  0  0  0  0  0  0  0  0  0  0  0
    4.3962    2.3043    1.9242 C   0  0  0  0  0  0  0  0  0  0  0  0
    3.7546    1.1298    1.2691 C   0  0  0  0  0  0  0  0  0  0  0  0
    2.4200    0.8443    1.8268 C   0  0  0  0  0  0  0  0  0  0  0  0
    1.9337    1.5597    2.7662 O   0  0  0  0  0  0  0  0  0  0  0  0
    1.6160   -0.2617    1.3232 N   0  0  0  0  0  0  0  0  0  0  0  0
    0.3310   -0.5274    1.8691 C   0  0  0  0  0  0  0  0  0  0  0  0
   -0.8488    0.1182    1.3861 C   0  0  0  0  0  0  0  0  0  0  0  0
   -1.4097    0.0485    0.1338 N   0  0  0  0  0  0  0  0  0  0  0  0
   -1.9509   -1.0154   -0.5865 C   0  0  0  0  0  0  0  0  0  0  0  0
   -1.9735   -2.1268   -0.0932 O   0  0  0  0  0  0  0  0  0  0  0  0
   -2.4819   -0.6318   -1.9936 C   0  0  2  0  0  0  0  0  0  0  0  0
   -3.5799    0.4906   -1.5922 C   0  0  0  0  0  0  0  0  0  0  0  0
   -4.3951    0.0722   -0.4556 C   0  0  0  0  0  0  0  0  0  0  0  0
   -5.8179   -0.3256   -0.8110 C   0  0  0  0  0  0  0  0  0  0  0  0
   -5.8425   -1.5208   -1.5319 O   0  0  0  0  0  0  0  0  0  0  0  0
   -4.8659   -1.4389   -2.5011 C   0  0  0  0  0  0  0  0  0  0  0  0
   -3.5355   -1.8466   -2.1712 C   0  0  0  0  0  0  0  0  0  0  0  0
    2.2262   -1.0454    0.3147 C   0  0  0  0  0  0  0  0  0  0  0  0
    1.6594   -2.2315   -0.3347 C   0  0  0  0  0  0  0  0  0  0  0  0
    1.8489   -0.9471   -1.0910 C   0  0  0  0  0  0  0  0  0  0  0  0
  1  2  1  0
  2  3  1  0
  3  4  1  0
  4  5  1  0
  5  6  1  0
  6  7  2  0
  6  8  1  0
  8  9  1  0
  9 10  1  0
 10 11  1  0
 11 12  1  0
 12 13  2  0
 14 12  1  1
 14 15  1  0
 15 16  1  0
 16 17  1  0
 17 18  1  0
 18 19  1  0
 19 20  1  0
  8 21  1  0
 21 22  1  0
 22 23  1  0
 20 14  1  0
 23 21  1  0
M  END
>  <zinc_id>  (44) 
ZINC001356604509

>  <smiles>  (44) 
CCCCCC(=O)N(CCNC(=O)[C@@H]1CCCOCC1)C1CC1

$$$$

     RDKit          3D

 29 32  0  0  0  0  0  0  0  0999 V2000
   -9.5328    2.0420    1.3821 C   0  0  0  0  0  0  0  0  0  0  0  0
   -8.6917    0.9160    0.9293 C   0  0  0  0  0  0  0  0  0  0  0  0
   -9.1227   -0.3486    0.6353 N   0  0  0  0  0  0  0  0  0  0  0  0
   -8.0468   -1.0556    0.2674 N   0  0  0  0  0  0  0  0  0  0  0  0
   -6.9697   -0.2739    0.3195 C   0  0  0  0  0  0  0  0  0  0  0  0
   -5.5730   -0.6250   -0.0015 C   0  0  0  0  0  0  0  0  0  0  0  0
   -4.6275    0.3825    0.0789 C   0  0  0  0  0  0  0  0  0  0  0  0
   -3.3029    0.1291   -0.1938 C   0  0  0  0  0  0  0  0  0  0  0  0
   -2.8745   -1.1504   -0.5582 C   0  0  0  0  0  0  0  0  0  0  0  0
   -1.4530   -1.3420   -0.8147 N   0  0  0  0  0  0  0  0  0  0  0  0
   -0.6547   -0.1367   -0.9307 C   0  0  0  0  0  0  0  0  0  0  0  0
    0.7710   -0.2318   -0.7868 C   0  0  0  0  0  0  0  0  0  0  0  0
    1.6987   -0.0292   -1.7776 C   0  0  0  0  0  0  0  0  0  0  0  0
    3.0717   -0.0385   -1.5611 C   0  0  0  0  0  0  0  0  0  0  0  0
    3.6017   -0.2619   -0.3014 C   0  0  0  0  0  0  0  0  0  0  0  0
    4.9936   -0.2160   -0.0212 N   0  0  0  0  0  0  0  0  0  0  0  0
    5.8453   -1.2754    0.0361 C   0  0  0  0  0  0  0  0  0  0  0  0
    7.1055   -0.8358    0.3673 C   0  0  0  0  0  0  0  0  0  0  0  0
    7.0133    0.5253    0.5142 C   0  0  0  0  0  0  0  0  0  0  0  0
    8.1089    1.5060    0.8965 C   0  0  0  0  0  0  0  0  0  0  0  0
    8.3181    2.3823   -0.1589 F   0  0  0  0  0  0  0  0  0  0  0  0
    9.2278    0.8450    1.2924 F   0  0  0  0  0  0  0  0  0  0  0  0
    7.6697    2.3000    1.9582 F   0  0  0  0  0  0  0  0  0  0  0  0
    5.7394    0.8178    0.2683 N   0  0  0  0  0  0  0  0  0  0  0  0
    2.6681   -0.4713    0.7051 C   0  0  0  0  0  0  0  0  0  0  0  0
    1.3361   -0.4571    0.4827 C   0  0  0  0  0  0  0  0  0  0  0  0
   -3.7976   -2.1447   -0.6392 C   0  0  0  0  0  0  0  0  0  0  0  0
   -5.1487   -1.8823   -0.3611 C   0  0  0  0  0  0  0  0  0  0  0  0
   -7.3732    0.9303    0.7245 O   0  0  0  0  0  0  0  0  0  0  0  0
  1  2  1  0
  2  3  2  0
  3  4  1  0
  4  5  2  0
  5  6  1  0
  6  7  2  0
  7  8  1  0
  8  9  2  0
  9 10  1  0
 10 11  1  0
 11 12  1  0
 12 13  2  0
 13 14  1  0
 14 15  2  0
 15 16  1  0
 16 17  1  0
 17 18  2  0
 18 19  1  0
 19 20  1  0
 20 21  1  0
 20 22  1  0
 20 23  1  0
 19 24  2  0
 15 25  1  0
 25 26  2  0
  9 27  1  0
 27 28  2  0
  5 29  1  0
 29  2  1  0
 28  6  1  0
 26 12  1  0
 24 16  1  0
M  END
>  <zinc_id>  (45) 
ZINC000151425755

>  <smiles>  (45) 
Cc1nnc(-c2ccc(NCc3ccc(-n4ccc(C(F)(F)F)n4)cc3)cc2)o1

$$$$

     RDKit          3D

 20 21  0  0  0  0  0  0  0  0999 V2000
    4.2166    1.0053    0.8621 C   0  0  0  0  0  0  0  0  0  0  0  0
    3.2180    0.6302   -0.1888 C   0  0  0  0  0  0  0  0  0  0  0  0
    3.3150    0.9390   -1.4949 N   0  0  0  0  0  0  0  0  0  0  0  0
    2.2575    0.4426   -2.0947 N   0  0  0  0  0  0  0  0  0  0  0  0
    1.4853   -0.1813   -1.1813 C   0  0  0  0  0  0  0  0  0  0  0  0
    0.2233   -0.8426   -1.5463 C   0  0  0  0  0  0  0  0  0  0  0  0
   -0.5859   -1.2434   -0.4174 N   0  0  0  0  0  0  0  0  0  0  0  0
   -1.5817   -0.4345    0.1844 C   0  0  0  0  0  0  0  0  0  0  0  0
   -2.2189   -0.8970    1.1645 O   0  0  0  0  0  0  0  0  0  0  0  0
   -1.9246    0.9078   -0.2574 C   0  0  0  0  0  0  0  0  0  0  0  0
   -2.8391    1.2898   -1.2170 C   0  0  0  0  0  0  0  0  0  0  0  0
   -2.8181    2.6772   -1.3004 C   0  0  0  0  0  0  0  0  0  0  0  0
   -1.9343    3.1075   -0.4333 O   0  0  0  0  0  0  0  0  0  0  0  0
   -1.3797    2.0805    0.2088 C   0  0  0  0  0  0  0  0  0  0  0  0
   -0.3418    2.2925    1.2507 C   0  0  0  0  0  0  0  0  0  0  0  0
   -0.3445   -2.5675    0.1186 C   0  0  0  0  0  0  0  0  0  0  0  0
    0.7438   -3.3029   -0.6290 C   0  0  0  0  0  0  0  0  0  0  0  0
   -1.6536   -3.3643    0.0836 C   0  0  0  0  0  0  0  0  0  0  0  0
    0.0539   -2.4979    1.5888 C   0  0  0  0  0  0  0  0  0  0  0  0
    2.1089   -0.0409   -0.0402 O   0  0  0  0  0  0  0  0  0  0  0  0
  1  2  1  0
  2  3  2  0
  3  4  1  0
  4  5  2  0
  5  6  1  0
  6  7  1  0
  7  8  1  0
  8  9  2  0
  8 10  1  0
 10 11  1  0
 11 12  2  0
 12 13  1  0
 13 14  1  0
 14 15  1  0
  7 16  1  0
 16 17  1  0
 16 18  1  0
 16 19  1  0
  5 20  1  0
 20  2  1  0
 14 10  2  0
M  END
>  <zinc_id>  (46) 
ZINC000151425759

>  <smiles>  (46) 
Cc1nnc(CN(C(=O)c2ccoc2C)C(C)(C)C)o1

$$$$

     RDKit          3D

 23 25  0  0  0  0  0  0  0  0999 V2000
   -5.9445   -1.1273   -1.8890 C   0  0  0  0  0  0  0  0  0  0  0  0
   -5.3687   -0.6288   -0.7553 C   0  0  0  0  0  0  0  0  0  0  0  0
   -5.4286    0.6242   -0.5263 O   0  0  0  0  0  0  0  0  0  0  0  0
   -4.6930   -1.4125    0.2108 N   0  0  0  0  0  0  0  0  0  0  0  0
   -4.0700   -0.9373    1.4155 C   0  0  0  0  0  0  0  0  0  0  0  0
   -2.9829    0.0155    1.0654 C   0  0  0  0  0  0  0  0  0  0  0  0
   -2.9809    1.3773    1.1533 C   0  0  0  0  0  0  0  0  0  0  0  0
   -1.8964    2.0370    0.7851 C   0  0  0  0  0  0  0  0  0  0  0  0
   -0.8243    1.3205    0.3319 C   0  0  0  0  0  0  0  0  0  0  0  0
    0.4806    1.8182   -0.1304 C   0  0  0  0  0  0  0  0  0  0  0  0
    0.7686    3.0301   -0.1607 O   0  0  0  0  0  0  0  0  0  0  0  0
    1.4306    0.8660   -0.5526 N   0  0  0  0  0  0  0  0  0  0  0  0
    2.7623    1.2758   -1.0308 C   0  0  0  0  0  0  0  0  0  0  0  0
    3.4677    0.0783   -1.4387 C   0  0  0  0  0  0  0  0  0  0  0  0
    3.4974   -1.1371   -0.7235 C   0  0  1  0  0  0  0  0  0  0  0  0
    3.2391   -2.2285   -1.5946 O   0  0  0  0  0  0  0  0  0  0  0  0
    4.7651   -1.5111    0.0097 C   0  0  0  0  0  0  0  0  0  0  0  0
    5.1032   -0.5994    1.1400 C   0  0  0  0  0  0  0  0  0  0  0  0
    3.9029   -0.6147    2.0967 C   0  0  0  0  0  0  0  0  0  0  0  0
    2.7289   -0.1197    1.3122 C   0  0  0  0  0  0  0  0  0  0  0  0
    2.2741   -1.3311    0.3240 C   0  0  1  0  0  0  0  0  0  0  0  0
    1.1762   -0.5142   -0.5459 C   0  0  0  0  0  0  0  0  0  0  0  0
   -1.4073   -0.2813    0.4487 S   0  0  0  0  0  0  0  0  0  0  0  0
  1  2  1  0
  2  3  2  0
  2  4  1  0
  4  5  1  0
  5  6  1  0
  6  7  2  0
  7  8  1  0
  8  9  2  0
  9 10  1  0
 10 11  2  0
 10 12  1  0
 12 13  1  0
 13 14  1  0
 14 15  1  0
 15 16  1  6
 15 17  1  0
 17 18  1  0
 18 19  1  0
 19 20  1  0
 21 20  1  1
 21 22  1  0
  9 23  1  0
 23  6  1  0
 22 12  1  0
 21 15  1  0
M  END
>  <zinc_id>  (47) 
ZINC000151425773

>  <smiles>  (47) 
CC(=O)NCc1ccc(C(=O)N2CC[C@@]3(O)CCCC[C@H]3C2)s1

$$$$

     RDKit          3D

 26 29  0  0  0  0  0  0  0  0999 V2000
   -2.9360    1.6255    1.7466 C   0  0  0  0  0  0  0  0  0  0  0  0
   -2.4707    0.3879    1.7477 C   0  0  0  0  0  0  0  0  0  0  0  0
   -2.3170    0.0902    0.1037 C   0  0  2  0  0  0  0  0  0  0  0  0
   -3.8641    0.3171   -0.1911 C   0  0  0  0  0  0  0  0  0  0  0  0
   -4.4238    1.2919   -0.9488 C   0  0  0  0  0  0  0  0  0  0  0  0
   -5.7944    1.1060   -0.9196 C   0  0  0  0  0  0  0  0  0  0  0  0
   -5.9605   -0.0221   -0.1064 C   0  0  0  0  0  0  0  0  0  0  0  0
   -4.7689   -0.4515    0.3009 N   0  0  0  0  0  0  0  0  0  0  0  0
   -4.4909   -1.5910    1.1502 C   0  0  0  0  0  0  0  0  0  0  0  0
   -3.3721   -2.2854    0.4178 C   0  0  0  0  0  0  0  0  0  0  0  0
   -2.2699   -1.4516    0.2833 N   0  0  0  0  0  0  0  0  0  0  0  0
   -0.9692   -2.0191    0.2996 C   0  0  0  0  0  0  0  0  0  0  0  0
   -0.8363   -3.3001    0.4499 O   0  0  0  0  0  0  0  0  0  0  0  0
    0.2565   -1.3043    0.1626 C   0  0  0  0  0  0  0  0  0  0  0  0
    0.2979    0.0455   -0.0100 C   0  0  0  0  0  0  0  0  0  0  0  0
    1.4364    0.7571   -0.1431 C   0  0  0  0  0  0  0  0  0  0  0  0
    2.6535    0.1091   -0.1070 C   0  0  0  0  0  0  0  0  0  0  0  0
    3.8752    0.8511   -0.2472 N   0  0  0  0  0  0  0  0  0  0  0  0
    4.1372    1.9218   -0.9524 N   0  0  0  0  0  0  0  0  0  0  0  0
    5.4027    2.3145   -0.8193 C   0  0  0  0  0  0  0  0  0  0  0  0
    6.0814    3.4893   -1.4620 C   0  0  0  0  0  0  0  0  0  0  0  0
    6.0045    1.4175    0.0468 C   0  0  0  0  0  0  0  0  0  0  0  0
    5.0046    0.4992    0.3919 C   0  0  0  0  0  0  0  0  0  0  0  0
    5.1854   -0.6610    1.3117 C   0  0  0  0  0  0  0  0  0  0  0  0
    2.6394   -1.2198    0.0619 N   0  0  0  0  0  0  0  0  0  0  0  0
    1.4992   -1.9182    0.1935 C   0  0  0  0  0  0  0  0  0  0  0  0
  1  2  1  0
  3  2  1  1
  3  4  1  0
  4  5  2  0
  5  6  1  0
  6  7  2  0
  7  8  1  0
  8  9  1  0
  9 10  1  0
 10 11  1  0
 11 12  1  0
 12 13  2  0
 12 14  1  0
 14 15  2  0
 15 16  1  0
 16 17  2  0
 17 18  1  0
 18 19  1  0
 19 20  2  0
 20 21  1  0
 20 22  1  0
 22 23  2  0
 23 24  1  0
 17 25  1  0
 25 26  2  0
 11  3  1  0
 26 14  1  0
  8  4  1  0
 23 18  1  0
M  END
>  <zinc_id>  (48) 
ZINC000151425785

>  <smiles>  (48) 
CC[C@@H]1c2cccn2CCN1C(=O)c1ccc(-n2nc(C)cc2C)nc1

$$$$

     RDKit          3D

 23 24  0  0  0  0  0  0  0  0999 V2000
    5.9584    1.0496   -1.5285 C   0  0  0  0  0  0  0  0  0  0  0  0
    5.4671    0.5362   -0.9413 C   0  0  0  0  0  0  0  0  0  0  0  0
    5.0371   -0.8453   -1.0224 N   0  0  0  0  0  0  0  0  0  0  0  0
    4.1357   -1.3479    0.3357 S   0  0  0  0  0  0  0  0  0  0  0  0
    4.9370   -1.1305    1.5898 O   0  0  0  0  0  0  0  0  0  0  0  0
    3.8409   -2.8100    0.1877 O   0  0  0  0  0  0  0  0  0  0  0  0
    2.6499   -0.4126    0.5176 C   0  0  0  0  0  0  0  0  0  0  0  0
    2.6194    0.7480    1.2608 C   0  0  0  0  0  0  0  0  0  0  0  0
    1.4532    1.4690    1.3950 C   0  0  0  0  0  0  0  0  0  0  0  0
    0.2939    1.0448    0.7893 C   0  0  0  0  0  0  0  0  0  0  0  0
    0.2813   -0.1081    0.0388 C   0  0  0  0  0  0  0  0  0  0  0  0
   -0.9294   -0.5975   -0.6238 C   0  0  0  0  0  0  0  0  0  0  0  0
   -0.8990   -1.6568   -1.3011 O   0  0  0  0  0  0  0  0  0  0  0  0
   -2.1621    0.0918   -0.5296 N   0  0  0  0  0  0  0  0  0  0  0  0
   -2.3191    1.3229    0.2227 C   0  0  0  0  0  0  0  0  0  0  0  0
   -3.2078    1.1476    1.4267 C   0  0  0  0  0  0  0  0  0  0  0  0
   -4.1829    0.0155    1.1461 C   0  0  0  0  0  0  0  0  0  0  0  0
   -4.5361    0.0942   -0.3365 C   0  0  1  0  0  0  0  0  0  0  0  0
   -5.6834   -0.8661   -0.5640 C   0  0  0  0  0  0  0  0  0  0  0  0
   -4.8861    1.5064   -0.7402 C   0  0  0  0  0  0  0  0  0  0  0  0
   -5.9779    1.9529   -0.0066 O   0  0  0  0  0  0  0  0  0  0  0  0
   -3.3693   -0.3904   -1.1863 C   0  0  0  0  0  0  0  0  0  0  0  0
    1.4792   -0.8137   -0.0764 C   0  0  0  0  0  0  0  0  0  0  0  0
  1  2  1  0
  2  3  1  0
  3  4  1  0
  4  5  2  0
  4  6  2  0
  4  7  1  0
  7  8  2  0
  8  9  1  0
  9 10  2  0
 10 11  1  0
 11 12  1  0
 12 13  2  0
 12 14  1  0
 14 15  1  0
 15 16  1  0
 16 17  1  0
 17 18  1  0
 18 19  1  1
 18 20  1  0
 20 21  1  0
 18 22  1  0
 11 23  2  0
 23  7  1  0
 22 14  1  0
M  END
>  <zinc_id>  (49) 
ZINC000151425794

>  <smiles>  (49) 
CCNS(=O)(=O)c1cccc(C(=O)N2CCC[C@@](C)(CO)C2)c1

$$$$

     RDKit          3D

 16 17  0  0  0  0  0  0  0  0999 V2000
    4.4249   -0.3352    1.5215 C   0  0  0  0  0  0  0  0  0  0  0  0
    3.4060    0.2385    0.5460 C   0  0  0  0  0  0  0  0  0  0  0  0
    3.0990    1.5702    0.6278 C   0  0  0  0  0  0  0  0  0  0  0  0
    1.9522    1.7830   -0.6104 S   0  0  0  0  0  0  0  0  0  0  0  0
    1.8880    0.1848   -1.2017 C   0  0  0  0  0  0  0  0  0  0  0  0
    1.0538   -0.3723   -2.3333 C   0  0  0  0  0  0  0  0  0  0  0  0
   -0.0042   -1.1786   -1.7949 N   0  0  0  0  0  0  0  0  0  0  0  0
   -1.0518   -0.7265   -0.9480 C   0  0  0  0  0  0  0  0  0  0  0  0
   -1.1467    0.5893   -0.5630 C   0  0  0  0  0  0  0  0  0  0  0  0
   -2.1663    1.0080    0.2562 C   0  0  0  0  0  0  0  0  0  0  0  0
   -2.2395    2.4291    0.6512 C   0  0  0  0  0  0  0  0  0  0  0  0
   -3.0711    0.0924    0.6720 N   0  0  0  0  0  0  0  0  0  0  0  0
   -2.9804   -1.1948    0.2970 C   0  0  0  0  0  0  0  0  0  0  0  0
   -3.9403   -2.0336    0.7703 F   0  0  0  0  0  0  0  0  0  0  0  0
   -1.9924   -1.5860   -0.4934 N   0  0  0  0  0  0  0  0  0  0  0  0
    2.7688   -0.4684   -0.4095 C   0  0  0  0  0  0  0  0  0  0  0  0
  1  2  1  0
  2  3  2  0
  3  4  1  0
  4  5  1  0
  5  6  1  0
  6  7  1  0
  7  8  1  0
  8  9  2  0
  9 10  1  0
 10 11  1  0
 10 12  2  0
 12 13  1  0
 13 14  1  0
 13 15  2  0
  5 16  2  0
 16  2  1  0
 15  8  1  0
M  END
>  <zinc_id>  (50) 
ZINC000690831341

>  <smiles>  (50) 
Cc1csc(CNc2cc(C)nc(F)n2)c1

$$$$

     RDKit          3D

 29 32  0  0  0  0  0  0  0  0999 V2000
    3.0704   -5.6275    0.0257 C   0  0  0  0  0  0  0  0  0  0  0  0
    2.8297   -4.3968    0.7269 O   0  0  0  0  0  0  0  0  0  0  0  0
    2.9810   -3.1688    0.1357 C   0  0  0  0  0  0  0  0  0  0  0  0
    3.3246   -3.0187   -1.0100 O   0  0  0  0  0  0  0  0  0  0  0  0
    2.6583   -1.9675    1.1098 C   0  0  1  0  0  0  0  0  0  0  0  0
    2.9515   -0.7570    0.0420 C   0  0  0  0  0  0  0  0  0  0  0  0
    2.3560    0.4106    1.0548 C   0  0  1  0  0  0  0  0  0  0  0  0
    2.9303    1.6331    0.2728 C   0  0  0  0  0  0  0  0  0  0  0  0
    4.0767    1.5952   -0.4218 C   0  0  0  0  0  0  0  0  0  0  0  0
    4.5052    2.7682   -1.0879 C   0  0  0  0  0  0  0  0  0  0  0  0
    3.7712    3.9250   -1.0308 C   0  0  0  0  0  0  0  0  0  0  0  0
    2.6059    3.9441   -0.3181 C   0  0  0  0  0  0  0  0  0  0  0  0
    2.1892    2.7716    0.3406 C   0  0  0  0  0  0  0  0  0  0  0  0
    0.8822    0.4200    0.3106 C   0  0  0  0  0  0  0  0  0  0  0  0
    0.5263   -0.9864    0.1831 N   0  0  0  0  0  0  0  0  0  0  0  0
   -0.4603   -1.2866   -0.7993 C   0  0  0  0  0  0  0  0  0  0  0  0
   -0.8621   -2.4641   -1.0244 O   0  0  0  0  0  0  0  0  0  0  0  0
   -1.0821   -0.2249   -1.6232 C   0  0  0  0  0  0  0  0  0  0  0  0
   -2.2295    0.2685   -0.8394 N   0  0  0  0  0  0  0  0  0  0  0  0
   -2.2349    1.2561    0.0264 N   0  0  0  0  0  0  0  0  0  0  0  0
   -3.4584    1.4334    0.5557 C   0  0  0  0  0  0  0  0  0  0  0  0
   -3.9395    2.3436    1.4999 C   0  0  0  0  0  0  0  0  0  0  0  0
   -5.2618    2.2821    1.8514 C   0  0  0  0  0  0  0  0  0  0  0  0
   -6.0511    1.3276    1.2579 C   0  0  0  0  0  0  0  0  0  0  0  0
   -5.5314    0.4578    0.3375 C   0  0  0  0  0  0  0  0  0  0  0  0
   -4.2339    0.5007   -0.0229 N   0  0  0  0  0  0  0  0  0  0  0  0
   -3.4794   -0.2133   -0.8784 C   0  0  0  0  0  0  0  0  0  0  0  0
   -3.8753   -1.1701   -1.5948 O   0  0  0  0  0  0  0  0  0  0  0  0
    1.0410   -2.0558    0.9203 C   0  0  0  0  0  0  0  0  0  0  0  0
  1  2  1  0
  2  3  1  0
  3  4  2  0
  5  3  1  6
  5  6  1  0
  6  7  1  0
  7  8  1  6
  8  9  2  0
  9 10  1  0
 10 11  2  0
 11 12  1  0
 12 13  2  0
  7 14  1  0
 14 15  1  0
 15 16  1  0
 16 17  2  0
 16 18  1  0
 18 19  1  0
 19 20  1  0
 20 21  2  0
 21 22  1  0
 22 23  2  0
 23 24  1  0
 24 25  2  0
 25 26  1  0
 26 27  1  0
 27 28  2  0
 15 29  1  0
 29  5  1  0
 13  8  1  0
 27 19  1  0
 26 21  1  0
M  END
>  <zinc_id>  (51) 
ZINC000151425808

>  <smiles>  (51) 
COC(=O)[C@H]1C[C@@H](c2ccccc2)CN(C(=O)Cn2nc3ccccn3c2=O)C1

$$$$

     RDKit          3D

 25 27  0  0  0  0  0  0  0  0999 V2000
    4.5033   -1.4525   -0.2429 C   0  0  0  0  0  0  0  0  0  0  0  0
    3.8485   -0.4433    0.6249 C   0  0  0  0  0  0  0  0  0  0  0  0
    2.4632   -0.0626    0.4911 C   0  0  0  0  0  0  0  0  0  0  0  0
    1.9935    0.8078    1.2759 O   0  0  0  0  0  0  0  0  0  0  0  0
    1.6032   -0.6178   -0.4782 N   0  0  0  0  0  0  0  0  0  0  0  0
    0.2243   -0.1725   -0.5371 C   0  0  0  0  0  0  0  0  0  0  0  0
   -0.6219   -1.0645    0.3784 C   0  0  0  0  0  0  0  0  0  0  0  0
   -2.0080   -0.6416    0.3377 N   0  0  0  0  0  0  0  0  0  0  0  0
   -2.7751   -0.6292   -0.8479 C   0  0  0  0  0  0  0  0  0  0  0  0
   -2.2246   -1.0037   -1.9143 O   0  0  0  0  0  0  0  0  0  0  0  0
   -4.1895   -0.1912   -0.8555 C   0  0  0  0  0  0  0  0  0  0  0  0
   -4.8906   -0.1974   -1.9976 N   0  0  0  0  0  0  0  0  0  0  0  0
   -6.1715    0.2014   -1.9945 C   0  0  0  0  0  0  0  0  0  0  0  0
   -6.7805    0.6206   -0.8228 C   0  0  0  0  0  0  0  0  0  0  0  0
   -6.0434    0.6179    0.3312 C   0  0  0  0  0  0  0  0  0  0  0  0
   -6.5652    1.0403    1.6554 C   0  0  0  0  0  0  0  0  0  0  0  0
   -4.7692    0.2082    0.2616 N   0  0  0  0  0  0  0  0  0  0  0  0
    2.1015   -1.6176   -1.3963 C   0  0  0  0  0  0  0  0  0  0  0  0
    2.4133   -1.2201   -2.8127 C   0  0  0  0  0  0  0  0  0  0  0  0
    1.2245   -2.1199   -2.4990 C   0  0  0  0  0  0  0  0  0  0  0  0
    4.6063    0.1056    1.5480 C   0  0  0  0  0  0  0  0  0  0  0  0
    4.1621    1.1294    2.5175 C   0  0  0  0  0  0  0  0  0  0  0  0
    5.3425    2.0968    2.5095 C   0  0  0  0  0  0  0  0  0  0  0  0
    6.5061    1.1052    2.6000 C   0  0  0  0  0  0  0  0  0  0  0  0
    6.0472   -0.1295    1.8675 C   0  0  0  0  0  0  0  0  0  0  0  0
  1  2  1  0
  2  3  1  0
  3  4  2  0
  3  5  1  0
  5  6  1  0
  6  7  1  0
  7  8  1  0
  8  9  1  0
  9 10  2  0
  9 11  1  0
 11 12  2  0
 12 13  1  0
 13 14  2  0
 14 15  1  0
 15 16  1  0
 15 17  2  0
  5 18  1  0
 18 19  1  0
 19 20  1  0
  2 21  2  3
 21 22  1  0
 22 23  1  0
 23 24  1  0
 24 25  1  0
 17 11  1  0
 20 18  1  0
 25 21  1  0
M  END
>  <zinc_id>  (52) 
ZINC001356604510

>  <smiles>  (52) 
CC(C(=O)N(CCNC(=O)c1nccc(C)n1)C1CC1)=C1CCCC1

$$$$

     RDKit          3D

 25 27  0  0  0  0  0  0  0  0999 V2000
    6.1283   -2.7177   -1.2847 C   0  0  0  0  0  0  0  0  0  0  0  0
    6.8602   -1.4715   -1.4524 C   0  0  0  0  0  0  0  0  0  0  0  0
    6.1606   -0.5738   -2.2771 O   0  0  0  0  0  0  0  0  0  0  0  0
    4.8991   -0.1700   -1.8679 C   0  0  0  0  0  0  0  0  0  0  0  0
    4.1610    0.7103   -2.6337 C   0  0  0  0  0  0  0  0  0  0  0  0
    2.9048    1.1077   -2.2190 C   0  0  0  0  0  0  0  0  0  0  0  0
    2.3259    0.6640   -1.0495 C   0  0  0  0  0  0  0  0  0  0  0  0
    1.0301    1.1047   -0.6696 N   0  0  0  0  0  0  0  0  0  0  0  0
    0.3853    0.6728    0.5357 C   0  0  0  0  0  0  0  0  0  0  0  0
    1.0934   -0.1310    1.2071 O   0  0  0  0  0  0  0  0  0  0  0  0
   -0.8860    1.1183    0.8877 N   0  0  0  0  0  0  0  0  0  0  0  0
   -1.7380    1.9940    0.2226 C   0  0  0  0  0  0  0  0  0  0  0  0
   -2.6332    2.5671    1.2997 C   0  0  0  0  0  0  0  0  0  0  0  0
   -2.0527    2.0935    2.6042 C   0  0  0  0  0  0  0  0  0  0  0  0
   -1.5074    0.6068    2.1983 C   0  0  1  0  0  0  0  0  0  0  0  0
   -2.8416    0.0497    1.6307 C   0  0  0  0  0  0  0  0  0  0  0  0
   -3.9831    0.2118    2.2661 N   0  0  0  0  0  0  0  0  0  0  0  0
   -4.9481   -0.3533    1.5854 O   0  0  0  0  0  0  0  0  0  0  0  0
   -4.4065   -0.8763    0.5097 C   0  0  0  0  0  0  0  0  0  0  0  0
   -5.2050   -1.6019   -0.5013 C   0  0  0  0  0  0  0  0  0  0  0  0
   -5.5534   -0.6936   -1.6771 C   0  0  0  0  0  0  0  0  0  0  0  0
   -4.5673   -2.8682   -0.9672 C   0  0  0  0  0  0  0  0  0  0  0  0
   -3.0656   -0.6291    0.5222 N   0  0  0  0  0  0  0  0  0  0  0  0
    3.1069   -0.2117   -0.3262 C   0  0  0  0  0  0  0  0  0  0  0  0
    4.3324   -0.6024   -0.7261 N   0  0  0  0  0  0  0  0  0  0  0  0
  1  2  1  0
  2  3  1  0
  3  4  1  0
  4  5  2  0
  5  6  1  0
  6  7  2  0
  7  8  1  0
  8  9  1  0
  9 10  2  0
  9 11  1  0
 11 12  1  0
 12 13  1  0
 13 14  1  0
 14 15  1  0
 15 16  1  6
 16 17  2  0
 17 18  1  0
 18 19  1  0
 19 20  1  0
 20 21  1  0
 20 22  1  0
 19 23  2  0
  7 24  1  0
 24 25  2  0
 25  4  1  0
 15 11  1  0
 23 16  1  0
M  END
>  <zinc_id>  (53) 
ZINC000151425811

>  <smiles>  (53) 
CCOc1ccc(NC(=O)N2CCC[C@H]2c2noc(C(C)C)n2)cn1

$$$$

     RDKit          3D

 26 29  0  0  0  0  0  0  0  0999 V2000
   -5.2745    1.0281    2.0060 C   0  0  0  0  0  0  0  0  0  0  0  0
   -3.9717    0.5783    2.0196 C   0  0  0  0  0  0  0  0  0  0  0  0
   -3.8288   -0.7255    1.0509 C   0  0  1  0  0  0  0  0  0  0  0  0
   -4.2690   -0.0172   -0.3103 C   0  0  0  0  0  0  0  0  0  0  0  0
   -4.9975    1.0429   -0.6358 C   0  0  0  0  0  0  0  0  0  0  0  0
   -4.9999    1.1188   -2.0144 C   0  0  0  0  0  0  0  0  0  0  0  0
   -4.2379    0.0506   -2.4410 C   0  0  0  0  0  0  0  0  0  0  0  0
   -3.7919   -0.6438   -1.3795 N   0  0  0  0  0  0  0  0  0  0  0  0
   -2.9653   -1.8318   -1.2710 C   0  0  0  0  0  0  0  0  0  0  0  0
   -1.9296   -1.6852   -0.1777 C   0  0  0  0  0  0  0  0  0  0  0  0
   -2.3033   -0.6664    0.7794 N   0  0  0  0  0  0  0  0  0  0  0  0
   -1.4218    0.1902    1.3398 C   0  0  0  0  0  0  0  0  0  0  0  0
   -1.6583    1.1094    2.1947 O   0  0  0  0  0  0  0  0  0  0  0  0
   -0.0014    0.1284    0.9811 C   0  0  0  0  0  0  0  0  0  0  0  0
    0.9201    1.0160    1.5606 C   0  0  0  0  0  0  0  0  0  0  0  0
    2.2528    0.9506    1.2173 C   0  0  0  0  0  0  0  0  0  0  0  0
    2.6605    0.0213    0.3159 C   0  0  0  0  0  0  0  0  0  0  0  0
    4.0502   -0.0441   -0.0397 N   0  0  0  0  0  0  0  0  0  0  0  0
    4.6550   -1.0594   -0.6406 N   0  0  0  0  0  0  0  0  0  0  0  0
    5.9510   -0.8104   -0.8321 C   0  0  0  0  0  0  0  0  0  0  0  0
    6.9559   -1.7069   -1.4732 C   0  0  0  0  0  0  0  0  0  0  0  0
    6.2051    0.4474   -0.3230 C   0  0  0  0  0  0  0  0  0  0  0  0
    4.9900    0.8979    0.1657 C   0  0  0  0  0  0  0  0  0  0  0  0
    4.7415    2.2112    0.8177 C   0  0  0  0  0  0  0  0  0  0  0  0
    1.7810   -0.8186   -0.2309 N   0  0  0  0  0  0  0  0  0  0  0  0
    0.4878   -0.7817    0.0790 C   0  0  0  0  0  0  0  0  0  0  0  0
  1  2  1  0
  3  2  1  1
  3  4  1  0
  4  5  2  0
  5  6  1  0
  6  7  2  0
  7  8  1  0
  8  9  1  0
  9 10  1  0
 10 11  1  0
 11 12  1  0
 12 13  2  0
 12 14  1  0
 14 15  2  0
 15 16  1  0
 16 17  2  0
 17 18  1  0
 18 19  1  0
 19 20  2  0
 20 21  1  0
 20 22  1  0
 22 23  2  0
 23 24  1  0
 17 25  1  0
 25 26  2  0
 11  3  1  0
 26 14  1  0
  8  4  1  0
 23 18  1  0
M  END
>  <zinc_id>  (54) 
ZINC000151425851

>  <smiles>  (54) 
CC[C@H]1c2cccn2CCN1C(=O)c1ccc(-n2nc(C)cc2C)nc1

$$$$

     RDKit          3D

 23 24  0  0  0  0  0  0  0  0999 V2000
    5.8851   -0.3009   -2.4665 C   0  0  0  0  0  0  0  0  0  0  0  0
    5.2642    0.0743   -1.3109 C   0  0  0  0  0  0  0  0  0  0  0  0
    5.0102   -1.0542   -0.4500 N   0  0  0  0  0  0  0  0  0  0  0  0
    4.2221   -0.5914    1.0208 S   0  0  0  0  0  0  0  0  0  0  0  0
    4.0255   -1.8509    1.8264 O   0  0  0  0  0  0  0  0  0  0  0  0
    5.0480    0.3495    1.8314 O   0  0  0  0  0  0  0  0  0  0  0  0
    2.6810    0.1188    0.6683 C   0  0  0  0  0  0  0  0  0  0  0  0
    2.5742    1.4934    0.4603 C   0  0  0  0  0  0  0  0  0  0  0  0
    1.3711    2.0868    0.1797 C   0  0  0  0  0  0  0  0  0  0  0  0
    0.2189    1.3434    0.0926 C   0  0  0  0  0  0  0  0  0  0  0  0
    0.2753   -0.0098    0.2893 C   0  0  0  0  0  0  0  0  0  0  0  0
   -0.9095   -0.8105    0.2047 C   0  0  0  0  0  0  0  0  0  0  0  0
   -0.8008   -2.0598    0.3958 O   0  0  0  0  0  0  0  0  0  0  0  0
   -2.1742   -0.2913   -0.0759 N   0  0  0  0  0  0  0  0  0  0  0  0
   -2.3843    1.1120   -0.3051 C   0  0  0  0  0  0  0  0  0  0  0  0
   -3.0165    1.2525   -1.6810 C   0  0  0  0  0  0  0  0  0  0  0  0
   -4.3557    0.5880   -1.6623 C   0  0  0  0  0  0  0  0  0  0  0  0
   -4.5551   -0.3016   -0.4603 C   0  0  2  0  0  0  0  0  0  0  0  0
   -5.7218   -1.2547   -0.7238 C   0  0  0  0  0  0  0  0  0  0  0  0
   -4.8410    0.5473    0.7527 C   0  0  0  0  0  0  0  0  0  0  0  0
   -5.9809    1.3121    0.5829 O   0  0  0  0  0  0  0  0  0  0  0  0
   -3.3512   -1.1502   -0.1511 C   0  0  0  0  0  0  0  0  0  0  0  0
    1.5154   -0.6028    0.5760 C   0  0  0  0  0  0  0  0  0  0  0  0
  1  2  1  0
  2  3  1  0
  3  4  1  0
  4  5  2  0
  4  6  2  0
  4  7  1  0
  7  8  2  0
  8  9  1  0
  9 10  2  0
 10 11  1  0
 11 12  1  0
 12 13  2  0
 12 14  1  0
 14 15  1  0
 15 16  1  0
 16 17  1  0
 17 18  1  0
 18 19  1  6
 18 20  1  0
 20 21  1  0
 18 22  1  0
 11 23  2  0
 23  7  1  0
 22 14  1  0
M  END
>  <zinc_id>  (55) 
ZINC000151425863

>  <smiles>  (55) 
CCNS(=O)(=O)c1cccc(C(=O)N2CCC[C@](C)(CO)C2)c1

$$$$

     RDKit          3D

 23 25  0  0  0  0  0  0  0  0999 V2000
    1.2032   -0.4868    1.8179 O   0  0  0  0  0  0  0  0  0  0  0  0
    0.6964   -0.0051    1.0689 C   0  0  0  0  0  0  0  0  0  0  0  0
    1.1139    1.1677    0.3481 C   0  0  0  0  0  0  0  0  0  0  0  0
    2.3423    1.8374    0.3074 C   0  0  0  0  0  0  0  0  0  0  0  0
    3.5094    1.0775   -0.1500 C   0  0  0  0  0  0  0  0  0  0  0  0
    3.7131    0.9641   -1.5372 C   0  0  0  0  0  0  0  0  0  0  0  0
    4.7284    0.2072   -2.0393 C   0  0  0  0  0  0  0  0  0  0  0  0
    5.5526   -0.4455   -1.1483 C   0  0  0  0  0  0  0  0  0  0  0  0
    5.3504   -0.3302    0.1958 C   0  0  0  0  0  0  0  0  0  0  0  0
    4.3276    0.4329    0.7289 C   0  0  0  0  0  0  0  0  0  0  0  0
    4.1971    0.5036    2.1177 O   0  0  0  0  0  0  0  0  0  0  0  0
   -0.5835   -0.5501    0.6750 N   0  0  0  0  0  0  0  0  0  0  0  0
   -1.1819   -1.7204    1.2461 C   0  0  0  0  0  0  0  0  0  0  0  0
   -1.4769   -2.4396   -0.0526 C   0  0  0  0  0  0  0  0  0  0  0  0
   -2.1767   -1.3130   -0.9201 C   0  0  1  0  0  0  0  0  0  0  0  0
   -3.7758   -1.2255    0.0247 S   0  0  0  0  0  0  0  0  0  0  0  0
   -4.5358   -2.4880   -0.2206 O   0  0  0  0  0  0  0  0  0  0  0  0
   -3.5856   -0.8657    1.4079 O   0  0  0  0  0  0  0  0  0  0  0  0
   -4.6706    0.0125   -0.8317 N   0  0  0  0  0  0  0  0  0  0  0  0
   -4.8980    1.1751   -0.0468 C   0  0  0  0  0  0  0  0  0  0  0  0
   -3.8646    2.0232    0.5526 C   0  0  0  0  0  0  0  0  0  0  0  0
   -4.5507    2.5174   -0.7018 C   0  0  0  0  0  0  0  0  0  0  0  0
   -1.4341   -0.0488   -0.3102 C   0  0  0  0  0  0  0  0  0  0  0  0
  1  2  2  0
  2  3  1  0
  3  4  1  0
  4  5  1  0
  5  6  2  0
  6  7  1  0
  7  8  2  0
  8  9  1  0
  9 10  2  0
 10 11  1  0
  2 12  1  0
 12 13  1  0
 13 14  1  0
 14 15  1  0
 15 16  1  1
 16 17  2  0
 16 18  2  0
 16 19  1  0
 19 20  1  0
 20 21  1  0
 21 22  1  0
 15 23  1  0
 10  5  1  0
 23 12  1  0
 22 20  1  0
M  END
>  <zinc_id>  (56) 
ZINC000151425867

>  <smiles>  (56) 
O=C(CCc1ccccc1O)N1CC[C@@H](S(=O)(=O)NC2CC2)C1

$$$$

     RDKit          2D

 25 28  0  0  0  0  0  0  0  0999 V2000
    8.1547   -2.3566    0.0000 C   0  0  0  0  0  0  0  0  0  0  0  0
    7.5013   -1.0064    0.0000 C   0  0  0  0  0  0  0  0  0  0  0  0
    8.2096    0.3158    0.0000 N   0  0  0  0  0  0  0  0  0  0  0  0
    7.1710    1.3981    0.0000 N   0  0  0  0  0  0  0  0  0  0  0  0
    5.8208    0.7447    0.0000 C   0  0  0  0  0  0  0  0  0  0  0  0
    4.4985    1.4530    0.0000 C   0  0  0  0  0  0  0  0  0  0  0  0
    3.2240    0.6621    0.0000 C   0  0  0  0  0  0  0  0  0  0  0  0
    3.2717   -0.8371    0.0000 O   0  0  0  0  0  0  0  0  0  0  0  0
    1.9018    1.3704    0.0000 N   0  0  0  0  0  0  0  0  0  0  0  0
    0.6272    0.5795    0.0000 C   0  0  0  0  0  0  0  0  0  0  0  0
   -0.6950    1.2878    0.0000 C   0  0  0  0  0  0  0  0  0  0  0  0
   -1.9695    0.4969    0.0000 N   0  0  0  0  0  0  0  0  0  0  0  0
   -3.2918    1.2052    0.0000 C   0  0  0  0  0  0  0  0  0  0  0  0
   -3.3394    2.7045    0.0000 O   0  0  0  0  0  0  0  0  0  0  0  0
   -4.5663    0.4143    0.0000 C   0  0  0  0  0  0  0  0  0  0  0  0
   -4.6756   -1.0817    0.0000 C   0  0  0  0  0  0  0  0  0  0  0  0
   -6.1321   -1.4401    0.0000 C   0  0  0  0  0  0  0  0  0  0  0  0
   -7.5212   -0.8738    0.0000 C   0  0  0  0  0  0  0  0  0  0  0  0
   -7.4119    0.6222    0.0000 C   0  0  0  0  0  0  0  0  0  0  0  0
   -5.9553    0.9805    0.0000 C   0  0  0  0  0  0  0  0  0  0  0  0
   -5.1644   -0.2940    0.0000 C   0  0  0  0  0  0  0  0  0  0  0  0
   -1.9218   -1.0023    0.0000 C   0  0  0  0  0  0  0  0  0  0  0  0
   -1.1309   -2.2769    0.0000 C   0  0  0  0  0  0  0  0  0  0  0  0
   -2.6302   -2.3246    0.0000 C   0  0  0  0  0  0  0  0  0  0  0  0
    6.0249   -0.7414    0.0000 O   0  0  0  0  0  0  0  0  0  0  0  0
  1  2  1  0
  2  3  2  0
  3  4  1  0
  4  5  2  0
  5  6  1  0
  6  7  1  0
  7  8  2  0
  7  9  1  0
  9 10  1  0
 10 11  1  0
 11 12  1  0
 12 13  1  0
 13 14  2  0
 15 13  1  6
 15 16  1  0
 17 16  1  1
 17 18  1  0
 18 19  2  0
 20 19  1  6
 20 21  1  0
 12 22  1  0
 22 23  1  0
 23 24  1  0
  5 25  1  0
 25  2  1  0
 20 15  1  0
 24 22  1  0
 21 17  1  0
M  END
>  <zinc_id>  (57) 
ZINC001356604511

>  <smiles>  (57) 
Cc1nnc(CC(=O)NCCN(C(=O)[C@@H]2C[C@H]3C=C[C@H]2C3)C2CC2)o1

$$$$

     RDKit          2D

 25 28  0  0  0  0  0  0  0  0999 V2000
    8.1547   -2.3566    0.0000 C   0  0  0  0  0  0  0  0  0  0  0  0
    7.5013   -1.0064    0.0000 C   0  0  0  0  0  0  0  0  0  0  0  0
    8.2096    0.3158    0.0000 N   0  0  0  0  0  0  0  0  0  0  0  0
    7.1710    1.3981    0.0000 N   0  0  0  0  0  0  0  0  0  0  0  0
    5.8208    0.7447    0.0000 C   0  0  0  0  0  0  0  0  0  0  0  0
    4.4985    1.4530    0.0000 C   0  0  0  0  0  0  0  0  0  0  0  0
    3.2240    0.6621    0.0000 C   0  0  0  0  0  0  0  0  0  0  0  0
    3.2717   -0.8371    0.0000 O   0  0  0  0  0  0  0  0  0  0  0  0
    1.9018    1.3704    0.0000 N   0  0  0  0  0  0  0  0  0  0  0  0
    0.6272    0.5795    0.0000 C   0  0  0  0  0  0  0  0  0  0  0  0
   -0.6950    1.2878    0.0000 C   0  0  0  0  0  0  0  0  0  0  0  0
   -1.9695    0.4969    0.0000 N   0  0  0  0  0  0  0  0  0  0  0  0
   -3.2918    1.2052    0.0000 C   0  0  0  0  0  0  0  0  0  0  0  0
   -3.3394    2.7045    0.0000 O   0  0  0  0  0  0  0  0  0  0  0  0
   -4.5663    0.4143    0.0000 C   0  0  0  0  0  0  0  0  0  0  0  0
   -4.6756   -1.0817    0.0000 C   0  0  0  0  0  0  0  0  0  0  0  0
   -6.1321   -1.4401    0.0000 C   0  0  0  0  0  0  0  0  0  0  0  0
   -7.5212   -0.8738    0.0000 C   0  0  0  0  0  0  0  0  0  0  0  0
   -7.4119    0.6222    0.0000 C   0  0  0  0  0  0  0  0  0  0  0  0
   -5.9553    0.9805    0.0000 C   0  0  0  0  0  0  0  0  0  0  0  0
   -5.1644   -0.2940    0.0000 C   0  0  0  0  0  0  0  0  0  0  0  0
   -1.9218   -1.0023    0.0000 C   0  0  0  0  0  0  0  0  0  0  0  0
   -1.1309   -2.2769    0.0000 C   0  0  0  0  0  0  0  0  0  0  0  0
   -2.6302   -2.3246    0.0000 C   0  0  0  0  0  0  0  0  0  0  0  0
    6.0249   -0.7414    0.0000 O   0  0  0  0  0  0  0  0  0  0  0  0
  1  2  1  0
  2  3  2  0
  3  4  1  0
  4  5  2  0
  5  6  1  0
  6  7  1  0
  7  8  2  0
  7  9  1  0
  9 10  1  0
 10 11  1  0
 11 12  1  0
 12 13  1  0
 13 14  2  0
 15 13  1  1
 15 16  1  0
 17 16  1  1
 17 18  1  0
 18 19  2  0
 20 19  1  6
 20 21  1  0
 12 22  1  0
 22 23  1  0
 23 24  1  0
  5 25  1  0
 25  2  1  0
 20 15  1  0
 24 22  1  0
 21 17  1  0
M  END
>  <zinc_id>  (58) 
ZINC001356604512

>  <smiles>  (58) 
Cc1nnc(CC(=O)NCCN(C(=O)[C@H]2C[C@H]3C=C[C@H]2C3)C2CC2)o1

$$$$

     RDKit          3D

 21 21  0  0  0  0  0  0  0  0999 V2000
    5.0283    2.3338   -0.0793 C   0  0  0  0  0  0  0  0  0  0  0  0
    3.7693    2.4110   -0.5645 C   0  0  0  0  0  0  0  0  0  0  0  0
    3.5398    2.7521   -1.9973 C   0  0  0  0  0  0  0  0  0  0  0  0
    2.6911    2.1428    0.4100 C   0  0  0  0  0  0  0  0  0  0  0  0
    1.7950    1.0070    0.0718 C   0  0  0  0  0  0  0  0  0  0  0  0
    2.4438   -0.3000   -0.0699 C   0  0  0  0  0  0  0  0  0  0  0  0
    3.6990   -0.4464    0.0169 O   0  0  0  0  0  0  0  0  0  0  0  0
    1.6248   -1.4329   -0.3148 N   0  0  0  0  0  0  0  0  0  0  0  0
    0.1778   -1.3645   -0.4170 C   0  0  0  0  0  0  0  0  0  0  0  0
   -0.4731   -1.5818    0.9311 C   0  0  0  0  0  0  0  0  0  0  0  0
   -1.9122   -1.5259    0.8791 N   0  0  0  0  0  0  0  0  0  0  0  0
   -2.5381   -0.3341    0.4539 C   0  0  0  0  0  0  0  0  0  0  0  0
   -1.8124    0.6347    0.1398 O   0  0  0  0  0  0  0  0  0  0  0  0
   -3.9919   -0.3078    0.4067 C   0  0  0  0  0  0  0  0  0  0  0  0
   -4.7137    0.7147    0.0423 C   0  0  0  0  0  0  0  0  0  0  0  0
   -6.1864    0.6409    0.0261 C   0  0  0  0  0  0  0  0  0  0  0  0
   -4.0492    1.9720   -0.3556 C   0  0  0  0  0  0  0  0  0  0  0  0
   -4.5458    3.0408    0.6291 C   0  0  0  0  0  0  0  0  0  0  0  0
    2.2572   -2.7396   -0.4674 C   0  0  0  0  0  0  0  0  0  0  0  0
    1.7609   -3.6630    0.6969 C   0  0  0  0  0  0  0  0  0  0  0  0
    1.4360   -3.9540   -0.7195 C   0  0  0  0  0  0  0  0  0  0  0  0
  1  2  2  0
  2  3  1  0
  2  4  1  0
  4  5  1  0
  5  6  1  0
  6  7  2  0
  6  8  1  0
  8  9  1  0
  9 10  1  0
 10 11  1  0
 11 12  1  0
 12 13  2  0
 12 14  1  0
 14 15  2  0
 15 16  1  0
 15 17  1  0
 17 18  1  0
  8 19  1  0
 19 20  1  0
 20 21  1  0
 21 19  1  0
M  END
>  <zinc_id>  (59) 
ZINC001356604513

>  <smiles>  (59) 
C=C(C)CCC(=O)N(CCNC(=O)/C=C(/C)CC)C1CC1

$$$$

     RDKit          3D

 26 29  0  0  0  0  0  0  0  0999 V2000
   -0.3346   -0.4495    2.0199 O   0  0  0  0  0  0  0  0  0  0  0  0
   -0.1812   -0.4686    1.0114 C   0  0  0  0  0  0  0  0  0  0  0  0
   -1.3457   -0.6472    0.1170 C   0  0  0  0  0  0  0  0  0  0  0  0
   -1.2320   -0.6849   -1.2541 C   0  0  0  0  0  0  0  0  0  0  0  0
   -2.3527   -0.8540   -2.0391 C   0  0  0  0  0  0  0  0  0  0  0  0
   -3.6097   -0.9896   -1.4915 C   0  0  0  0  0  0  0  0  0  0  0  0
   -3.7380   -0.9540   -0.1266 C   0  0  0  0  0  0  0  0  0  0  0  0
   -5.0778   -1.0952    0.5449 C   0  0  0  0  0  0  0  0  0  0  0  0
   -5.6926    0.2154    0.7176 N   0  0  0  0  0  0  0  0  0  0  0  0
   -4.8478    1.0581    1.5351 C   0  0  0  0  0  0  0  0  0  0  0  0
   -4.4239    2.2256    0.7052 C   0  0  0  0  0  0  0  0  0  0  0  0
   -5.4992    2.2840   -0.3874 C   0  0  0  0  0  0  0  0  0  0  0  0
   -5.8235    0.8370   -0.5661 C   0  0  0  0  0  0  0  0  0  0  0  0
   -2.6017   -0.7840    0.6323 C   0  0  0  0  0  0  0  0  0  0  0  0
    1.1270   -0.3264    0.4718 N   0  0  0  0  0  0  0  0  0  0  0  0
    1.4276   -0.3426   -0.9431 C   0  0  0  0  0  0  0  0  0  0  0  0
    2.2168    0.9529   -0.9645 C   0  0  0  0  0  0  0  0  0  0  0  0
    3.2672    0.7302    0.2090 C   0  0  2  0  0  0  0  0  0  0  0  0
    4.2697   -0.6341   -0.5597 S   0  0  0  0  0  0  0  0  0  0  0  0
    4.9973   -0.1470   -1.7421 O   0  0  0  0  0  0  0  0  0  0  0  0
    3.4847   -1.8459   -0.7300 O   0  0  0  0  0  0  0  0  0  0  0  0
    5.4746   -0.9662    0.6632 N   0  0  0  0  0  0  0  0  0  0  0  0
    6.2914    0.1961    0.9057 C   0  0  0  0  0  0  0  0  0  0  0  0
    5.6138    1.4752    1.3943 C   0  0  0  0  0  0  0  0  0  0  0  0
    6.2523    1.3644   -0.0051 C   0  0  0  0  0  0  0  0  0  0  0  0
    2.3379   -0.1498    1.1452 C   0  0  0  0  0  0  0  0  0  0  0  0
  1  2  2  0
  2  3  1  0
  3  4  2  0
  4  5  1  0
  5  6  2  0
  6  7  1  0
  7  8  1  0
  8  9  1  0
  9 10  1  0
 10 11  1  0
 11 12  1  0
 12 13  1  0
  7 14  2  0
  2 15  1  0
 15 16  1  0
 16 17  1  0
 17 18  1  0
 18 19  1  6
 19 20  2  0
 19 21  2  0
 19 22  1  0
 22 23  1  0
 23 24  1  0
 24 25  1  0
 18 26  1  0
 14  3  1  0
 26 15  1  0
 13  9  1  0
 25 23  1  0
M  END
>  <zinc_id>  (60) 
ZINC000151425944

>  <smiles>  (60) 
O=C(c1cccc(CN2CCCC2)c1)N1CC[C@H](S(=O)(=O)NC2CC2)C1

$$$$

     RDKit          3D

 21 21  0  0  0  0  0  0  0  0999 V2000
   -3.7841    1.3595   -2.4894 C   0  0  0  0  0  0  0  0  0  0  0  0
   -4.0527    1.4833   -1.2059 C   0  0  0  0  0  0  0  0  0  0  0  0
   -5.3967    1.0030   -0.7114 C   0  0  0  0  0  0  0  0  0  0  0  0
   -3.0692    2.0736   -0.2765 C   0  0  0  0  0  0  0  0  0  0  0  0
   -2.6563    1.1797    0.8540 C   0  0  0  0  0  0  0  0  0  0  0  0
   -2.0147   -0.0800    0.4132 C   0  0  0  0  0  0  0  0  0  0  0  0
   -1.8058   -0.2667   -0.8116 O   0  0  0  0  0  0  0  0  0  0  0  0
   -1.6429   -1.0581    1.3708 N   0  0  0  0  0  0  0  0  0  0  0  0
   -1.0092   -2.2661    0.8836 C   0  0  0  0  0  0  0  0  0  0  0  0
    0.4901   -2.1508    0.8379 C   0  0  0  0  0  0  0  0  0  0  0  0
    0.9662   -1.0849   -0.0081 N   0  0  0  0  0  0  0  0  0  0  0  0
    2.3663   -0.8709   -0.1300 C   0  0  0  0  0  0  0  0  0  0  0  0
    3.1573   -1.6262    0.5105 O   0  0  0  0  0  0  0  0  0  0  0  0
    2.8423    0.2086   -0.9859 C   0  0  0  0  0  0  0  0  0  0  0  0
    4.1375    0.4187   -1.1074 C   0  0  0  0  0  0  0  0  0  0  0  0
    5.0554   -0.4732   -0.3513 C   0  0  0  0  0  0  0  0  0  0  0  0
    4.7003    1.5059   -1.9647 C   0  0  0  0  0  0  0  0  0  0  0  0
    5.5141    2.4429   -1.0707 C   0  0  0  0  0  0  0  0  0  0  0  0
   -1.9104   -0.7997    2.7573 C   0  0  0  0  0  0  0  0  0  0  0  0
   -1.0127   -1.2058    3.8416 C   0  0  0  0  0  0  0  0  0  0  0  0
   -0.8750    0.2073    3.3519 C   0  0  0  0  0  0  0  0  0  0  0  0
  1  2  2  0
  2  3  1  0
  2  4  1  0
  4  5  1  0
  5  6  1  0
  6  7  2  0
  6  8  1  0
  8  9  1  0
  9 10  1  0
 10 11  1  0
 11 12  1  0
 12 13  2  0
 12 14  1  0
 14 15  2  0
 15 16  1  0
 15 17  1  0
 17 18  1  0
  8 19  1  0
 19 20  1  0
 20 21  1  0
 21 19  1  0
M  END
>  <zinc_id>  (61) 
ZINC001356604514

>  <smiles>  (61) 
C=C(C)CCC(=O)N(CCNC(=O)/C=C(\C)CC)C1CC1

$$$$

     RDKit          3D

 29 32  0  0  0  0  0  0  0  0999 V2000
   -3.9647   -2.2396    1.6900 C   0  0  0  0  0  0  0  0  0  0  0  0
   -4.3853   -1.7901    1.3085 C   0  0  0  0  0  0  0  0  0  0  0  0
   -3.8135   -0.2281    1.1999 C   0  0  2  0  0  0  0  0  0  0  0  0
   -5.0361    0.2890    0.3189 C   0  0  0  0  0  0  0  0  0  0  0  0
   -6.1619    0.9147    0.8700 C   0  0  0  0  0  0  0  0  0  0  0  0
   -6.9650    1.1963   -0.2162 C   0  0  0  0  0  0  0  0  0  0  0  0
   -6.3049    0.7428   -1.3172 C   0  0  0  0  0  0  0  0  0  0  0  0
   -5.1054    0.1823   -0.9515 N   0  0  0  0  0  0  0  0  0  0  0  0
   -4.1534   -0.3915   -1.8380 C   0  0  0  0  0  0  0  0  0  0  0  0
   -3.2435   -1.3164   -1.0622 C   0  0  0  0  0  0  0  0  0  0  0  0
   -2.7976   -0.5731    0.0479 N   0  0  0  0  0  0  0  0  0  0  0  0
   -1.4714   -0.0816    0.2453 C   0  0  0  0  0  0  0  0  0  0  0  0
   -1.1689    0.5697    1.2640 O   0  0  0  0  0  0  0  0  0  0  0  0
   -0.4745   -0.3700   -0.7944 C   0  0  0  0  0  0  0  0  0  0  0  0
    0.8104    0.2186   -0.4001 N   0  0  0  0  0  0  0  0  0  0  0  0
    1.2208    1.5305   -0.7359 C   0  0  0  0  0  0  0  0  0  0  0  0
    0.5884    2.4071   -1.4094 O   0  0  0  0  0  0  0  0  0  0  0  0
    2.5110    1.7004   -0.1668 N   0  0  0  0  0  0  0  0  0  0  0  0
    2.7645    0.6336    0.7855 C   0  0  2  0  0  0  0  0  0  0  0  0
    2.4472    1.1214    2.1737 C   0  0  0  0  0  0  0  0  0  0  0  0
    4.1700    0.1684    0.7074 C   0  0  0  0  0  0  0  0  0  0  0  0
    4.6309   -0.5344   -0.3940 C   0  0  0  0  0  0  0  0  0  0  0  0
    5.9691   -0.9250   -0.3674 C   0  0  0  0  0  0  0  0  0  0  0  0
    6.8036   -0.6375    0.6868 C   0  0  0  0  0  0  0  0  0  0  0  0
    8.1086   -1.0120    0.7253 F   0  0  0  0  0  0  0  0  0  0  0  0
    6.3099    0.0661    1.7706 C   0  0  0  0  0  0  0  0  0  0  0  0
    5.0036    0.4541    1.7578 C   0  0  0  0  0  0  0  0  0  0  0  0
    1.8128   -0.4328    0.3641 C   0  0  0  0  0  0  0  0  0  0  0  0
    1.8954   -1.6630    0.6394 O   0  0  0  0  0  0  0  0  0  0  0  0
  1  2  1  0
  3  2  1  6
  3  4  1  0
  4  5  2  0
  5  6  1  0
  6  7  2  0
  7  8  1  0
  8  9  1  0
  9 10  1  0
 10 11  1  0
 11 12  1  0
 12 13  2  0
 12 14  1  0
 14 15  1  0
 15 16  1  0
 16 17  2  0
 16 18  1  0
 18 19  1  0
 19 20  1  1
 19 21  1  0
 21 22  2  0
 22 23  1  0
 23 24  2  0
 24 25  1  0
 24 26  1  0
 26 27  2  0
 19 28  1  0
 28 29  2  0
 11  3  1  0
 28 15  1  0
  8  4  1  0
 27 21  1  0
M  END
>  <zinc_id>  (62) 
ZINC000151425962

>  <smiles>  (62) 
CC[C@@H]1c2cccn2CCN1C(=O)CN1C(=O)N[C@](C)(c2ccc(F)cc2)C1=O

$$$$

     RDKit          3D

 23 24  0  0  0  0  0  0  0  0999 V2000
    5.7516    1.5973    1.0975 C   0  0  0  0  0  0  0  0  0  0  0  0
    5.0930    0.3694    1.6849 C   0  0  0  0  0  0  0  0  0  0  0  0
    5.5885   -0.8721    1.0542 C   0  0  0  0  0  0  0  0  0  0  0  0
    7.0478   -1.2302    1.1174 C   0  0  0  0  0  0  0  0  0  0  0  0
    4.7174   -1.6519    0.4368 C   0  0  0  0  0  0  0  0  0  0  0  0
    3.3089   -1.3024    0.3766 C   0  0  0  0  0  0  0  0  0  0  0  0
    2.9290   -0.2412    0.9236 O   0  0  0  0  0  0  0  0  0  0  0  0
    2.3462   -2.1139   -0.2765 N   0  0  0  0  0  0  0  0  0  0  0  0
    0.9302   -1.7458   -0.3266 C   0  0  0  0  0  0  0  0  0  0  0  0
    0.7590   -0.4084   -1.0227 C   0  0  0  0  0  0  0  0  0  0  0  0
   -0.6514   -0.1004   -1.0436 N   0  0  0  0  0  0  0  0  0  0  0  0
   -1.2380    0.6196    0.0176 C   0  0  0  0  0  0  0  0  0  0  0  0
   -0.5703    1.0143    1.0011 O   0  0  0  0  0  0  0  0  0  0  0  0
   -2.6771    0.9405    0.0139 C   0  0  0  0  0  0  0  0  0  0  0  0
   -3.3765    1.5989    0.9242 N   0  0  0  0  0  0  0  0  0  0  0  0
   -4.6465    1.7859    0.7502 C   0  0  0  0  0  0  0  0  0  0  0  0
   -5.4908    2.5379    1.7706 C   0  0  0  0  0  0  0  0  0  0  0  0
   -5.2152    1.2825   -0.3914 C   0  0  0  0  0  0  0  0  0  0  0  0
   -6.6496    1.3611   -0.8261 C   0  0  0  0  0  0  0  0  0  0  0  0
   -3.8717    0.5619   -1.1549 S   0  0  0  0  0  0  0  0  0  0  0  0
   -1.4379   -0.5399   -2.1601 C   0  0  0  0  0  0  0  0  0  0  0  0
   -0.6985   -1.5372   -3.0765 C   0  0  0  0  0  0  0  0  0  0  0  0
   -1.9482   -1.9258   -2.2709 C   0  0  0  0  0  0  0  0  0  0  0  0
  1  2  1  0
  2  3  1  0
  3  4  1  0
  3  5  2  0
  5  6  1  0
  6  7  2  0
  6  8  1  0
  8  9  1  0
  9 10  1  0
 10 11  1  0
 11 12  1  0
 12 13  2  0
 12 14  1  0
 14 15  2  0
 15 16  1  0
 16 17  1  0
 16 18  2  0
 18 19  1  0
 18 20  1  0
 11 21  1  0
 21 22  1  0
 22 23  1  0
 20 14  1  0
 23 21  1  0
M  END
>  <zinc_id>  (63) 
ZINC001356604515

>  <smiles>  (63) 
CC/C(C)=C\C(=O)NCCN(C(=O)c1nc(C)c(C)s1)C1CC1

$$$$

     RDKit          3D

 26 29  0  0  0  0  0  0  0  0999 V2000
    0.4904   -1.3862   -2.3281 O   0  0  0  0  0  0  0  0  0  0  0  0
    0.1639   -0.9412   -1.4484 C   0  0  0  0  0  0  0  0  0  0  0  0
    1.0498   -0.0366   -0.7214 C   0  0  0  0  0  0  0  0  0  0  0  0
    0.7152    0.6036    0.4516 C   0  0  0  0  0  0  0  0  0  0  0  0
    1.5513    1.4479    1.1240 C   0  0  0  0  0  0  0  0  0  0  0  0
    2.7921    1.6877    0.6279 C   0  0  0  0  0  0  0  0  0  0  0  0
    3.1921    1.0876   -0.5307 C   0  0  0  0  0  0  0  0  0  0  0  0
    4.5314    1.3428   -1.0715 C   0  0  0  0  0  0  0  0  0  0  0  0
    5.5355    0.4358   -0.6043 N   0  0  0  0  0  0  0  0  0  0  0  0
    5.7290    0.4331    0.8117 C   0  0  0  0  0  0  0  0  0  0  0  0
    5.8492   -0.9786    1.2803 C   0  0  0  0  0  0  0  0  0  0  0  0
    5.9974   -1.7866    0.0332 C   0  0  0  0  0  0  0  0  0  0  0  0
    5.3152   -0.9354   -1.0151 C   0  0  0  0  0  0  0  0  0  0  0  0
    2.3325    0.2427   -1.1878 C   0  0  0  0  0  0  0  0  0  0  0  0
   -1.1238   -1.1927   -0.9375 N   0  0  0  0  0  0  0  0  0  0  0  0
   -2.1652   -2.0416   -1.4760 C   0  0  0  0  0  0  0  0  0  0  0  0
   -3.4606   -1.5728   -0.8138 C   0  0  0  0  0  0  0  0  0  0  0  0
   -3.0419   -0.1416   -0.3040 C   0  0  1  0  0  0  0  0  0  0  0  0
   -3.9800   -0.1367    1.2891 S   0  0  0  0  0  0  0  0  0  0  0  0
   -3.6892    1.2365    1.8528 O   0  0  0  0  0  0  0  0  0  0  0  0
   -3.4791   -1.1756    2.2042 O   0  0  0  0  0  0  0  0  0  0  0  0
   -5.6533   -0.3134    0.9156 N   0  0  0  0  0  0  0  0  0  0  0  0
   -6.0520    0.8206    0.1104 C   0  0  0  0  0  0  0  0  0  0  0  0
   -5.9142    2.1987    0.6749 C   0  0  0  0  0  0  0  0  0  0  0  0
   -5.0277    1.7247   -0.4751 C   0  0  0  0  0  0  0  0  0  0  0  0
   -1.6578   -0.6227    0.2679 C   0  0  0  0  0  0  0  0  0  0  0  0
  1  2  2  0
  2  3  1  0
  3  4  2  0
  4  5  1  0
  5  6  2  0
  6  7  1  0
  7  8  1  0
  8  9  1  0
  9 10  1  0
 10 11  1  0
 11 12  1  0
 12 13  1  0
  7 14  2  0
  2 15  1  0
 15 16  1  0
 16 17  1  0
 17 18  1  0
 18 19  1  1
 19 20  2  0
 19 21  2  0
 19 22  1  0
 22 23  1  0
 23 24  1  0
 24 25  1  0
 18 26  1  0
 14  3  1  0
 26 15  1  0
 13  9  1  0
 25 23  1  0
M  END
>  <zinc_id>  (64) 
ZINC000151426010

>  <smiles>  (64) 
O=C(c1cccc(CN2CCCC2)c1)N1CC[C@@H](S(=O)(=O)NC2CC2)C1

$$$$

     RDKit          3D

 25 26  0  0  0  0  0  0  0  0999 V2000
    5.1572   -0.2586    4.0329 C   0  0  0  0  0  0  0  0  0  0  0  0
    5.8671   -0.3076    2.7368 C   0  0  0  0  0  0  0  0  0  0  0  0
    6.5971   -1.6449    2.7050 C   0  0  0  0  0  0  0  0  0  0  0  0
    4.8473   -0.2473    1.6812 C   0  0  0  0  0  0  0  0  0  0  0  0
    3.9914   -0.1960    0.8331 C   0  0  0  0  0  0  0  0  0  0  0  0
    2.9316   -0.1357   -0.1717 C   0  0  0  0  0  0  0  0  0  0  0  0
    2.7075   -1.0909   -0.9433 O   0  0  0  0  0  0  0  0  0  0  0  0
    2.1963    1.0202   -0.2225 N   0  0  0  0  0  0  0  0  0  0  0  0
    1.0252    1.1917   -1.2591 C   0  0  1  0  0  0  0  0  0  0  0  0
    1.9201    2.4060   -2.0131 C   0  0  0  0  0  0  0  0  0  0  0  0
    1.4910    0.0379   -2.2841 C   0  0  0  0  0  0  0  0  0  0  0  0
    0.3029    0.0617   -3.3622 C   0  0  2  0  0  0  0  0  0  0  0  0
    0.4697    1.5886   -3.8637 C   0  0  0  0  0  0  0  0  0  0  0  0
   -0.8918    0.3468   -2.4025 N   0  0  0  0  0  0  0  0  0  0  0  0
   -1.2624   -0.6457   -1.4802 C   0  0  0  0  0  0  0  0  0  0  0  0
   -0.5750   -1.6923   -1.5300 O   0  0  0  0  0  0  0  0  0  0  0  0
   -2.3447   -0.5550   -0.5055 C   0  0  0  0  0  0  0  0  0  0  0  0
   -3.1534    0.5501   -0.3713 C   0  0  0  0  0  0  0  0  0  0  0  0
   -4.1669    0.5926    0.5701 C   0  0  0  0  0  0  0  0  0  0  0  0
   -5.1076    1.5641    0.9094 C   0  0  0  0  0  0  0  0  0  0  0  0
   -5.8925    1.0873    1.9332 C   0  0  0  0  0  0  0  0  0  0  0  0
   -5.4478   -0.1711    2.2330 C   0  0  0  0  0  0  0  0  0  0  0  0
   -4.4254   -0.4254    1.4027 N   0  0  0  0  0  0  0  0  0  0  0  0
   -3.6093   -1.5160    1.2523 C   0  0  0  0  0  0  0  0  0  0  0  0
   -2.6276   -1.5604    0.3425 N   0  0  0  0  0  0  0  0  0  0  0  0
  1  2  1  0
  2  3  1  0
  2  4  1  0
  4  5  3  0
  5  6  1  0
  6  7  2  0
  6  8  1  0
  8  9  1  0
  9 10  1  6
  9 11  1  0
 11 12  1  0
 12 13  1  1
 12 14  1  0
 14 15  1  0
 15 16  2  0
 15 17  1  0
 17 18  2  0
 18 19  1  0
 19 20  2  0
 20 21  1  0
 21 22  2  0
 22 23  1  0
 23 24  1  0
 24 25  2  0
 25 17  1  0
 23 19  1  0
M  END
>  <zinc_id>  (65) 
ZINC001718919958

>  <smiles>  (65) 
CC(C)C#CC(=O)N[C@@H](C)C[C@@H](C)NC(=O)c1cc2cccn2cn1

$$$$

     RDKit          3D

 26 29  0  0  0  0  0  0  0  0999 V2000
   -4.8855   -3.9287    0.1413 C   0  0  0  0  0  0  0  0  0  0  0  0
   -4.1245   -2.6937    0.1218 N   0  0  0  0  0  0  0  0  0  0  0  0
   -2.8160   -2.5138    0.3748 C   0  0  0  0  0  0  0  0  0  0  0  0
   -2.5209   -1.1730    0.2403 C   0  0  0  0  0  0  0  0  0  0  0  0
   -1.2022   -0.4945    0.4220 C   0  0  0  0  0  0  0  0  0  0  0  0
   -0.2419   -1.5112    0.7769 N   0  0  0  0  0  0  0  0  0  0  0  0
    1.1302   -1.2395    1.0300 C   0  0  0  0  0  0  0  0  0  0  0  0
    2.0279   -2.2393    1.3691 C   0  0  0  0  0  0  0  0  0  0  0  0
    3.2289   -1.6187    1.5341 C   0  0  0  0  0  0  0  0  0  0  0  0
    3.0919   -0.2990    1.3104 N   0  0  0  0  0  0  0  0  0  0  0  0
    4.1498    0.6987    1.3893 C   0  0  0  0  0  0  0  0  0  0  0  0
    4.8065    0.8466    0.0651 C   0  0  0  0  0  0  0  0  0  0  0  0
    5.8971    0.0811   -0.2965 C   0  0  0  0  0  0  0  0  0  0  0  0
    6.4874    0.2417   -1.5368 C   0  0  0  0  0  0  0  0  0  0  0  0
    6.0241    1.1582   -2.4576 C   0  0  0  0  0  0  0  0  0  0  0  0
    4.9333    1.9201   -2.0891 C   0  0  0  0  0  0  0  0  0  0  0  0
    4.3411    1.7623   -0.8507 C   0  0  0  0  0  0  0  0  0  0  0  0
    1.8190   -0.1046    1.0098 N   0  0  0  0  0  0  0  0  0  0  0  0
   -3.7013   -0.5619   -0.1019 C   0  0  0  0  0  0  0  0  0  0  0  0
   -3.8196    0.8727   -0.3387 C   0  0  0  0  0  0  0  0  0  0  0  0
   -3.2474    1.7909    0.4964 C   0  0  0  0  0  0  0  0  0  0  0  0
   -3.3970    3.1369    0.2157 C   0  0  0  0  0  0  0  0  0  0  0  0
   -4.1240    3.5055   -0.9057 C   0  0  0  0  0  0  0  0  0  0  0  0
   -4.6745    2.5924   -1.7080 N   0  0  0  0  0  0  0  0  0  0  0  0
   -4.5358    1.2806   -1.4452 C   0  0  0  0  0  0  0  0  0  0  0  0
   -4.6466   -1.5099   -0.1642 N   0  0  0  0  0  0  0  0  0  0  0  0
  1  2  1  0
  2  3  1  0
  3  4  2  0
  4  5  1  0
  5  6  1  0
  6  7  1  0
  7  8  1  0
  8  9  2  0
  9 10  1  0
 10 11  1  0
 11 12  1  0
 12 13  2  0
 13 14  1  0
 14 15  2  0
 15 16  1  0
 16 17  2  0
 10 18  1  0
  4 19  1  0
 19 20  1  0
 20 21  2  0
 21 22  1  0
 22 23  2  0
 23 24  1  0
 24 25  2  0
 19 26  2  0
 26  2  1  0
 18  7  2  0
 25 20  1  0
 17 12  1  0
M  END
>  <zinc_id>  (66) 
ZINC000151426045

>  <smiles>  (66) 
Cn1cc(CNc2ccn(Cc3ccccc3)n2)c(-c2cccnc2)n1

$$$$

     RDKit          3D

 29 32  0  0  0  0  0  0  0  0999 V2000
   -4.5554   -2.1529   -1.6512 C   0  0  0  0  0  0  0  0  0  0  0  0
   -3.4294   -1.4525   -0.9907 C   0  0  0  0  0  0  0  0  0  0  0  0
   -3.6076    0.1254   -1.4795 C   0  0  1  0  0  0  0  0  0  0  0  0
   -5.0671    0.3057   -0.8381 C   0  0  0  0  0  0  0  0  0  0  0  0
   -6.2404   -0.0523   -1.5045 C   0  0  0  0  0  0  0  0  0  0  0  0
   -7.2460    0.2561   -0.6204 C   0  0  0  0  0  0  0  0  0  0  0  0
   -6.6278    0.7717    0.5036 C   0  0  0  0  0  0  0  0  0  0  0  0
   -5.2918    0.7848    0.3284 N   0  0  0  0  0  0  0  0  0  0  0  0
   -4.3617    1.2811    1.3274 C   0  0  0  0  0  0  0  0  0  0  0  0
   -3.1952    1.7658    0.5107 C   0  0  0  0  0  0  0  0  0  0  0  0
   -2.7682    0.7550   -0.3403 N   0  0  0  0  0  0  0  0  0  0  0  0
   -1.4518    0.2084   -0.2261 C   0  0  0  0  0  0  0  0  0  0  0  0
   -1.0348   -0.6904   -0.9941 O   0  0  0  0  0  0  0  0  0  0  0  0
   -0.5502    0.7302    0.8451 C   0  0  0  0  0  0  0  0  0  0  0  0
    0.7227    0.0709    0.8104 N   0  0  0  0  0  0  0  0  0  0  0  0
    1.0730   -1.1056    1.5050 C   0  0  0  0  0  0  0  0  0  0  0  0
    0.3989   -1.8284    2.2813 O   0  0  0  0  0  0  0  0  0  0  0  0
    2.4225   -1.4149    1.1937 N   0  0  0  0  0  0  0  0  0  0  0  0
    2.7803   -0.6694    0.0325 C   0  0  2  0  0  0  0  0  0  0  0  0
    2.5152   -1.5113   -1.1827 C   0  0  0  0  0  0  0  0  0  0  0  0
    4.2108   -0.2688    0.1402 C   0  0  0  0  0  0  0  0  0  0  0  0
    5.1989   -0.7986   -0.6665 C   0  0  0  0  0  0  0  0  0  0  0  0
    6.5173   -0.4065   -0.5430 C   0  0  0  0  0  0  0  0  0  0  0  0
    6.9168    0.5291    0.3864 C   0  0  0  0  0  0  0  0  0  0  0  0
    8.2273    0.9105    0.5002 F   0  0  0  0  0  0  0  0  0  0  0  0
    5.9363    1.0618    1.1947 C   0  0  0  0  0  0  0  0  0  0  0  0
    4.6200    0.6665    1.0670 C   0  0  0  0  0  0  0  0  0  0  0  0
    1.8726    0.4859    0.0650 C   0  0  0  0  0  0  0  0  0  0  0  0
    2.0147    1.6427   -0.4417 O   0  0  0  0  0  0  0  0  0  0  0  0
  1  2  1  0
  3  2  1  1
  3  4  1  0
  4  5  2  0
  5  6  1  0
  6  7  2  0
  7  8  1  0
  8  9  1  0
  9 10  1  0
 10 11  1  0
 11 12  1  0
 12 13  2  0
 12 14  1  0
 14 15  1  0
 15 16  1  0
 16 17  2  0
 16 18  1  0
 18 19  1  0
 19 20  1  6
 19 21  1  0
 21 22  2  0
 22 23  1  0
 23 24  2  0
 24 25  1  0
 24 26  1  0
 26 27  2  0
 19 28  1  0
 28 29  2  0
 11  3  1  0
 28 15  1  0
  8  4  1  0
 27 21  1  0
M  END
>  <zinc_id>  (67) 
ZINC000151426051

>  <smiles>  (67) 
CC[C@H]1c2cccn2CCN1C(=O)CN1C(=O)N[C@](C)(c2ccc(F)cc2)C1=O

$$$$

     RDKit          3D

 26 29  0  0  0  0  0  0  0  0999 V2000
    7.2143    0.9648    2.5310 C   0  0  0  0  0  0  0  0  0  0  0  0
    6.4196    0.5444    1.3239 C   0  0  0  0  0  0  0  0  0  0  0  0
    6.8931   -0.0039    0.1866 N   0  0  0  0  0  0  0  0  0  0  0  0
    5.8582   -0.2194   -0.6137 N   0  0  0  0  0  0  0  0  0  0  0  0
    4.7340    0.1880    0.0080 C   0  0  0  0  0  0  0  0  0  0  0  0
    3.3795    0.1260   -0.5280 C   0  0  0  0  0  0  0  0  0  0  0  0
    2.2970    0.5729    0.1977 C   0  0  0  0  0  0  0  0  0  0  0  0
    1.0047    0.5138   -0.3138 C   0  0  0  0  0  0  0  0  0  0  0  0
    0.7425    0.0109   -1.5584 C   0  0  0  0  0  0  0  0  0  0  0  0
   -0.5410   -0.0861   -2.1549 N   0  0  0  0  0  0  0  0  0  0  0  0
   -1.7923    0.2331   -1.5738 C   0  0  0  0  0  0  0  0  0  0  0  0
   -2.1332   -0.6447   -0.4524 C   0  0  0  0  0  0  0  0  0  0  0  0
   -1.3867   -1.6883    0.0209 C   0  0  0  0  0  0  0  0  0  0  0  0
   -2.0626   -2.2437    1.0562 N   0  0  0  0  0  0  0  0  0  0  0  0
   -1.5953   -3.3722    1.8162 C   0  0  0  0  0  0  0  0  0  0  0  0
   -3.1870   -1.5825    1.2319 N   0  0  0  0  0  0  0  0  0  0  0  0
   -3.2724   -0.5749    0.3112 C   0  0  0  0  0  0  0  0  0  0  0  0
   -4.3902    0.3554    0.2195 C   0  0  0  0  0  0  0  0  0  0  0  0
   -4.1408    1.7022    0.0613 C   0  0  0  0  0  0  0  0  0  0  0  0
   -5.2095    2.5673   -0.0236 C   0  0  0  0  0  0  0  0  0  0  0  0
   -6.4877    2.0935    0.0483 C   0  0  0  0  0  0  0  0  0  0  0  0
   -6.7457    0.7758    0.2032 N   0  0  0  0  0  0  0  0  0  0  0  0
   -5.6984   -0.0466    0.2835 C   0  0  0  0  0  0  0  0  0  0  0  0
    1.8447   -0.4429   -2.2944 C   0  0  0  0  0  0  0  0  0  0  0  0
    3.1271   -0.3818   -1.7813 C   0  0  0  0  0  0  0  0  0  0  0  0
    5.1282    0.6387    1.1696 O   0  0  0  0  0  0  0  0  0  0  0  0
  1  2  1  0
  2  3  2  0
  3  4  1  0
  4  5  2  0
  5  6  1  0
  6  7  2  0
  7  8  1  0
  8  9  2  0
  9 10  1  0
 10 11  1  0
 11 12  1  0
 12 13  2  0
 13 14  1  0
 14 15  1  0
 14 16  1  0
 16 17  2  0
 17 18  1  0
 18 19  2  0
 19 20  1  0
 20 21  2  0
 21 22  1  0
 22 23  2  0
  9 24  1  0
 24 25  2  0
  5 26  1  0
 26  2  1  0
 25  6  1  0
 17 12  1  0
 23 18  1  0
M  END
>  <zinc_id>  (68) 
ZINC000151426058

>  <smiles>  (68) 
Cc1nnc(-c2ccc(NCc3cn(C)nc3-c3cccnc3)cc2)o1

$$$$

     RDKit          3D

 25 25  0  0  0  0  0  0  0  0999 V2000
   -6.0295    0.6952    0.5400 C   0  0  0  0  0  0  0  0  0  0  0  0
   -5.9570    0.5481    0.3887 C   0  0  0  0  0  0  0  0  0  0  0  0
   -5.6162   -0.5645   -0.5629 C   0  0  0  0  0  0  0  0  0  0  0  0
   -5.4619   -1.8551    0.1536 C   0  0  0  0  0  0  0  0  0  0  0  0
   -6.8699   -0.6511   -1.4548 C   0  0  0  0  0  0  0  0  0  0  0  0
   -4.4593   -0.2398   -1.3779 C   0  0  0  0  0  0  0  0  0  0  0  0
   -3.2006    0.0123   -0.6802 C   0  0  0  0  0  0  0  0  0  0  0  0
   -3.1453   -0.1706    0.5699 O   0  0  0  0  0  0  0  0  0  0  0  0
   -2.0197    0.4515   -1.2980 N   0  0  0  0  0  0  0  0  0  0  0  0
   -0.7267    0.6973   -0.5097 C   0  0  1  0  0  0  0  0  0  0  0  0
   -0.6732    2.2868   -1.0032 C   0  0  0  0  0  0  0  0  0  0  0  0
   -1.4052    0.9963    0.9000 C   0  0  0  0  0  0  0  0  0  0  0  0
   -0.2100    1.2594    1.9557 C   0  0  2  0  0  0  0  0  0  0  0  0
    0.4655    2.5479    1.2651 C   0  0  0  0  0  0  0  0  0  0  0  0
    0.7510    0.1779    1.4189 N   0  0  0  0  0  0  0  0  0  0  0  0
    2.0742    0.5069    1.0723 C   0  0  0  0  0  0  0  0  0  0  0  0
    2.3884    1.7217    1.2397 O   0  0  0  0  0  0  0  0  0  0  0  0
    3.0840   -0.4015    0.5518 C   0  0  0  0  0  0  0  0  0  0  0  0
    4.3698   -0.0585    0.1942 C   0  0  0  0  0  0  0  0  0  0  0  0
    5.0077   -1.1940   -0.2487 C   0  0  0  0  0  0  0  0  0  0  0  0
    6.4046   -1.3676   -0.7511 C   0  0  0  0  0  0  0  0  0  0  0  0
    7.4296   -1.3056    0.3529 C   0  0  0  0  0  0  0  0  0  0  0  0
    6.7229   -0.2306   -1.7150 C   0  0  0  0  0  0  0  0  0  0  0  0
    4.0950   -2.1738   -0.1455 N   0  0  0  0  0  0  0  0  0  0  0  0
    2.9818   -1.6885    0.3237 O   0  0  0  0  0  0  0  0  0  0  0  0
  1  2  2  0
  2  3  1  0
  3  4  1  0
  3  5  1  0
  3  6  1  0
  6  7  1  0
  7  8  2  0
  7  9  1  0
  9 10  1  0
 10 11  1  6
 10 12  1  0
 12 13  1  0
 13 14  1  6
 13 15  1  0
 15 16  1  0
 16 17  2  0
 16 18  1  0
 18 19  2  0
 19 20  1  0
 20 21  1  0
 21 22  1  0
 21 23  1  0
 20 24  2  0
 24 25  1  0
 25 18  1  0
M  END
>  <zinc_id>  (69) 
ZINC001718919959

>  <smiles>  (69) 
C=CC(C)(C)CC(=O)N[C@@H](C)C[C@H](C)NC(=O)c1cc(C(C)C)no1

$$$$

     RDKit          3D

 25 25  0  0  0  0  0  0  0  0999 V2000
    7.2301   -1.5140   -0.3336 C   0  0  0  0  0  0  0  0  0  0  0  0
    6.8521   -1.1620    0.7670 C   0  0  0  0  0  0  0  0  0  0  0  0
    5.8175   -0.0873    0.8882 C   0  0  0  0  0  0  0  0  0  0  0  0
    5.2803   -0.0252    2.2785 C   0  0  0  0  0  0  0  0  0  0  0  0
    6.5371    1.2064    0.5136 C   0  0  0  0  0  0  0  0  0  0  0  0
    4.7185   -0.4115   -0.0898 C   0  0  0  0  0  0  0  0  0  0  0  0
    3.6347    0.6053   -0.0476 C   0  0  0  0  0  0  0  0  0  0  0  0
    3.6866    1.5534    0.7906 O   0  0  0  0  0  0  0  0  0  0  0  0
    2.5981    0.4992   -0.9204 N   0  0  0  0  0  0  0  0  0  0  0  0
    1.4018    1.5018   -0.9755 C   0  0  2  0  0  0  0  0  0  0  0  0
    1.7962    2.3699    0.3712 C   0  0  0  0  0  0  0  0  0  0  0  0
    0.3443    0.5294   -0.1495 C   0  0  0  0  0  0  0  0  0  0  0  0
    0.2838   -0.7866   -1.1562 C   0  0  2  0  0  0  0  0  0  0  0  0
   -0.2850    0.0687   -2.4615 C   0  0  0  0  0  0  0  0  0  0  0  0
   -1.1519   -1.2538   -0.6777 N   0  0  0  0  0  0  0  0  0  0  0  0
   -2.1265   -0.2790   -0.4978 C   0  0  0  0  0  0  0  0  0  0  0  0
   -1.7653    0.9257   -0.7456 O   0  0  0  0  0  0  0  0  0  0  0  0
   -3.4790   -0.5525   -0.0568 C   0  0  0  0  0  0  0  0  0  0  0  0
   -4.5190    0.2996    0.2082 C   0  0  0  0  0  0  0  0  0  0  0  0
   -5.6116   -0.4734    0.6021 C   0  0  0  0  0  0  0  0  0  0  0  0
   -6.9296    0.0532    0.9808 C   0  0  0  0  0  0  0  0  0  0  0  0
   -7.2340    1.4004    0.4187 C   0  0  0  0  0  0  0  0  0  0  0  0
   -7.9852   -0.9788    0.7350 C   0  0  0  0  0  0  0  0  0  0  0  0
   -5.1647   -1.7308    0.5502 N   0  0  0  0  0  0  0  0  0  0  0  0
   -3.9292   -1.7583    0.1676 O   0  0  0  0  0  0  0  0  0  0  0  0
  1  2  2  0
  2  3  1  0
  3  4  1  0
  3  5  1  0
  3  6  1  0
  6  7  1  0
  7  8  2  0
  7  9  1  0
  9 10  1  0
 10 11  1  1
 10 12  1  0
 12 13  1  0
 13 14  1  6
 13 15  1  0
 15 16  1  0
 16 17  2  0
 16 18  1  0
 18 19  2  0
 19 20  1  0
 20 21  1  0
 21 22  1  0
 21 23  1  0
 20 24  2  0
 24 25  1  0
 25 18  1  0
M  END
>  <zinc_id>  (70) 
ZINC001718919960

>  <smiles>  (70) 
C=CC(C)(C)CC(=O)N[C@H](C)C[C@H](C)NC(=O)c1cc(C(C)C)no1

$$$$

     RDKit          3D

 24 26  0  0  0  0  0  0  0  0999 V2000
    1.1426    1.6106    0.3777 O   0  0  0  0  0  0  0  0  0  0  0  0
    0.8059    0.7809    0.3747 C   0  0  0  0  0  0  0  0  0  0  0  0
    1.5396   -0.3583    0.2006 O   0  0  0  0  0  0  0  0  0  0  0  0
    2.9062   -0.2813    0.0112 C   0  0  0  0  0  0  0  0  0  0  0  0
    3.8035   -0.3113    1.0739 C   0  0  0  0  0  0  0  0  0  0  0  0
    5.1676   -0.2353    0.8970 C   0  0  0  0  0  0  0  0  0  0  0  0
    5.6939   -0.1243   -0.3737 C   0  0  0  0  0  0  0  0  0  0  0  0
    4.8407   -0.0921   -1.4380 C   0  0  0  0  0  0  0  0  0  0  0  0
    3.4743   -0.1692   -1.2460 C   0  0  0  0  0  0  0  0  0  0  0  0
    2.4601   -0.1207   -2.6617 Cl  0  0  0  0  0  0  0  0  0  0  0  0
   -0.7879    0.6307    0.5898 C   0  0  2  0  0  0  0  0  0  0  0  0
   -0.7683    0.9155    2.2051 C   0  0  0  0  0  0  0  0  0  0  0  0
    0.2100    0.0686    2.8623 C   0  0  0  0  0  0  0  0  0  0  0  0
    0.0188   -1.4038    2.7778 C   0  0  0  0  0  0  0  0  0  0  0  0
   -0.0912   -1.7829    1.3215 C   0  0  0  0  0  0  0  0  0  0  0  0
   -0.9736   -0.8954    0.6870 N   0  0  0  0  0  0  0  0  0  0  0  0
   -2.1510   -1.4116    0.0694 C   0  0  0  0  0  0  0  0  0  0  0  0
   -2.3740   -2.6719    0.1090 O   0  0  0  0  0  0  0  0  0  0  0  0
   -3.1438   -0.6027   -0.6190 C   0  0  0  0  0  0  0  0  0  0  0  0
   -4.2634   -1.2091   -1.1906 C   0  0  0  0  0  0  0  0  0  0  0  0
   -5.2342   -0.4986   -1.8529 C   0  0  0  0  0  0  0  0  0  0  0  0
   -5.1265    0.8722   -1.9748 C   0  0  0  0  0  0  0  0  0  0  0  0
   -4.0529    1.4437   -1.4253 N   0  0  0  0  0  0  0  0  0  0  0  0
   -3.0965    0.7598   -0.7750 C   0  0  0  0  0  0  0  0  0  0  0  0
  1  2  2  0
  2  3  1  0
  3  4  1  0
  4  5  2  0
  5  6  1  0
  6  7  2  0
  7  8  1  0
  8  9  2  0
  9 10  1  0
 11  2  1  1
 11 12  1  0
 12 13  1  0
 13 14  1  0
 14 15  1  0
 15 16  1  0
 16 17  1  0
 17 18  2  0
 17 19  1  0
 19 20  2  0
 20 21  1  0
 21 22  2  0
 22 23  1  0
 23 24  2  0
  9  4  1  0
 16 11  1  0
 24 19  1  0
M  END
>  <zinc_id>  (71) 
ZINC000151426130

>  <smiles>  (71) 
O=C(Oc1ccccc1Cl)[C@@H]1CCCCN1C(=O)c1cccnc1

$$$$

     RDKit          3D

 29 32  0  0  0  0  0  0  0  0999 V2000
    2.4748    1.0545    3.3743 C   0  0  0  0  0  0  0  0  0  0  0  0
    2.9080    0.8255    3.2210 C   0  0  0  0  0  0  0  0  0  0  0  0
    3.6219    0.7437    1.7244 C   0  0  2  0  0  0  0  0  0  0  0  0
    3.7859    2.2628    1.5733 C   0  0  0  0  0  0  0  0  0  0  0  0
    4.9329    2.9495    1.9201 C   0  0  0  0  0  0  0  0  0  0  0  0
    4.6938    4.2849    1.6561 C   0  0  0  0  0  0  0  0  0  0  0  0
    3.4139    4.3528    1.1607 C   0  0  0  0  0  0  0  0  0  0  0  0
    2.8992    3.1117    1.1257 N   0  0  0  0  0  0  0  0  0  0  0  0
    1.5683    2.7164    0.6538 C   0  0  0  0  0  0  0  0  0  0  0  0
    1.6926    1.3065    0.1125 C   0  0  0  0  0  0  0  0  0  0  0  0
    2.3759    0.4108    0.9735 N   0  0  0  0  0  0  0  0  0  0  0  0
    1.8988   -0.9120    1.1600 C   0  0  0  0  0  0  0  0  0  0  0  0
    2.5810   -1.6496    1.9138 O   0  0  0  0  0  0  0  0  0  0  0  0
    0.7548   -1.4250    0.5742 C   0  0  0  0  0  0  0  0  0  0  0  0
   -0.1577   -0.8283   -0.2654 N   0  0  0  0  0  0  0  0  0  0  0  0
   -0.2448   -0.6868   -1.6955 C   0  0  0  0  0  0  0  0  0  0  0  0
    0.6054   -1.1320   -2.4969 O   0  0  0  0  0  0  0  0  0  0  0  0
   -1.4197    0.0213   -2.0473 N   0  0  0  0  0  0  0  0  0  0  0  0
   -2.3001   -0.0920   -0.9077 C   0  0  1  0  0  0  0  0  0  0  0  0
   -3.1184    1.2097   -0.8415 C   0  0  0  0  0  0  0  0  0  0  0  0
   -3.2000   -1.2372   -1.0595 C   0  0  0  0  0  0  0  0  0  0  0  0
   -3.8757   -1.8545   -0.0320 C   0  0  0  0  0  0  0  0  0  0  0  0
   -4.7137   -2.9380   -0.2394 C   0  0  0  0  0  0  0  0  0  0  0  0
   -4.9147   -3.4578   -1.4994 C   0  0  0  0  0  0  0  0  0  0  0  0
   -5.7376   -4.5273   -1.7257 F   0  0  0  0  0  0  0  0  0  0  0  0
   -4.2458   -2.8521   -2.5419 C   0  0  0  0  0  0  0  0  0  0  0  0
   -3.4048   -1.7622   -2.3224 C   0  0  0  0  0  0  0  0  0  0  0  0
   -1.3385   -0.1698    0.2044 C   0  0  0  0  0  0  0  0  0  0  0  0
   -1.5358    0.2746    1.3746 O   0  0  0  0  0  0  0  0  0  0  0  0
  1  2  1  0
  3  2  1  1
  3  4  1  0
  4  5  2  0
  5  6  1  0
  6  7  2  0
  7  8  1  0
  8  9  1  0
  9 10  1  0
 10 11  1  0
 11 12  1  0
 12 13  2  0
 12 14  1  0
 14 15  1  0
 15 16  1  0
 16 17  2  0
 16 18  1  0
 18 19  1  0
 19 20  1  1
 19 21  1  0
 21 22  2  0
 22 23  1  0
 23 24  2  0
 24 25  1  0
 24 26  1  0
 26 27  2  0
 19 28  1  0
 28 29  2  0
 11  3  1  0
 28 15  1  0
  8  4  1  0
 27 21  1  0
M  END
>  <zinc_id>  (72) 
ZINC000151426138

>  <smiles>  (72) 
CC[C@@H]1c2cccn2CCN1C(=O)CN1C(=O)N[C@@](C)(c2ccc(F)cc2)C1=O

$$$$

     RDKit          3D

 27 29  0  0  0  0  0  0  0  0999 V2000
   -2.1038    5.5016   -0.3795 C   0  0  0  0  0  0  0  0  0  0  0  0
   -1.7073    4.3897   -0.4840 O   0  0  0  0  0  0  0  0  0  0  0  0
   -2.4226    3.2437   -0.2292 C   0  0  0  0  0  0  0  0  0  0  0  0
   -3.5816    3.2884    0.1438 O   0  0  0  0  0  0  0  0  0  0  0  0
   -1.6820    1.8507   -0.4389 C   0  0  2  0  0  0  0  0  0  0  0  0
   -2.9558    0.9101   -0.0153 C   0  0  0  0  0  0  0  0  0  0  0  0
   -2.1927   -0.5438   -0.2008 C   0  0  2  0  0  0  0  0  0  0  0  0
   -3.4671   -1.4136    0.0738 C   0  0  0  0  0  0  0  0  0  0  0  0
   -4.3630   -1.3719   -0.9423 C   0  0  0  0  0  0  0  0  0  0  0  0
   -5.5612   -2.1062   -0.8430 C   0  0  0  0  0  0  0  0  0  0  0  0
   -5.7805   -2.8506    0.3011 C   0  0  0  0  0  0  0  0  0  0  0  0
   -4.8490   -2.8659    1.3060 C   0  0  0  0  0  0  0  0  0  0  0  0
   -3.6963   -2.1328    1.1613 C   0  0  0  0  0  0  0  0  0  0  0  0
   -1.6038   -0.5194    1.3402 C   0  0  0  0  0  0  0  0  0  0  0  0
   -0.6012    0.4909    1.2102 N   0  0  0  0  0  0  0  0  0  0  0  0
    0.7688    0.1751    1.1813 C   0  0  0  0  0  0  0  0  0  0  0  0
    1.6721    1.0554    1.0670 O   0  0  0  0  0  0  0  0  0  0  0  0
    1.1469   -1.2693    1.2920 C   0  0  0  0  0  0  0  0  0  0  0  0
    2.9486   -1.3702    1.2176 S   0  0  0  0  0  0  0  0  0  0  0  0
    3.4558   -0.8494   -0.4370 C   0  0  0  0  0  0  0  0  0  0  0  0
    4.9052   -0.8817   -0.6463 C   0  0  0  0  0  0  0  0  0  0  0  0
    5.6791    0.2150   -0.3698 C   0  0  0  0  0  0  0  0  0  0  0  0
    7.0721    0.1943   -0.5687 C   0  0  0  0  0  0  0  0  0  0  0  0
    7.6441   -0.9546   -1.0485 C   0  0  0  0  0  0  0  0  0  0  0  0
    6.8387   -2.0419   -1.3173 C   0  0  0  0  0  0  0  0  0  0  0  0
    5.4822   -1.9913   -1.1131 N   0  0  0  0  0  0  0  0  0  0  0  0
   -1.0456    1.8477    1.1072 C   0  0  0  0  0  0  0  0  0  0  0  0
  1  2  1  0
  2  3  1  0
  3  4  2  0
  5  3  1  1
  5  6  1  0
  6  7  1  0
  7  8  1  1
  8  9  2  0
  9 10  1  0
 10 11  2  0
 11 12  1  0
 12 13  2  0
  7 14  1  0
 14 15  1  0
 15 16  1  0
 16 17  2  0
 16 18  1  0
 18 19  1  0
 19 20  1  0
 20 21  1  0
 21 22  2  0
 22 23  1  0
 23 24  2  0
 24 25  1  0
 25 26  2  0
 15 27  1  0
 27  5  1  0
 13  8  1  0
 26 21  1  0
M  END
>  <zinc_id>  (73) 
ZINC000151426172

>  <smiles>  (73) 
COC(=O)[C@@H]1C[C@H](c2ccccc2)CN(C(=O)CSCc2ccccn2)C1

$$$$

     RDKit          3D

 25 25  0  0  0  0  0  0  0  0999 V2000
   -6.1176    1.7884    2.5080 C   0  0  0  0  0  0  0  0  0  0  0  0
   -5.9445    1.3087    2.1776 C   0  0  0  0  0  0  0  0  0  0  0  0
   -6.0689   -0.0230    1.4403 C   0  0  0  0  0  0  0  0  0  0  0  0
   -7.0589   -0.9048    2.2202 C   0  0  0  0  0  0  0  0  0  0  0  0
   -6.5082    0.2162    0.0240 C   0  0  0  0  0  0  0  0  0  0  0  0
   -4.7482   -0.7177    1.5151 C   0  0  0  0  0  0  0  0  0  0  0  0
   -3.6696    0.1182    0.8762 C   0  0  0  0  0  0  0  0  0  0  0  0
   -3.9822    1.2141    0.3662 O   0  0  0  0  0  0  0  0  0  0  0  0
   -2.3069   -0.3382    0.8568 N   0  0  0  0  0  0  0  0  0  0  0  0
   -1.3843    0.7255    0.1420 C   0  0  1  0  0  0  0  0  0  0  0  0
   -0.0912    0.4581    1.0900 C   0  0  0  0  0  0  0  0  0  0  0  0
   -0.9703   -0.1865   -1.1086 C   0  0  0  0  0  0  0  0  0  0  0  0
   -0.1992   -1.4915   -0.5186 C   0  0  1  0  0  0  0  0  0  0  0  0
   -0.0386   -2.1451   -2.0576 C   0  0  0  0  0  0  0  0  0  0  0  0
    1.2089   -0.8281   -0.5049 N   0  0  0  0  0  0  0  0  0  0  0  0
    2.2816   -1.3806   -1.1884 C   0  0  0  0  0  0  0  0  0  0  0  0
    2.0252   -2.4396   -1.8089 O   0  0  0  0  0  0  0  0  0  0  0  0
    3.6288   -0.7955   -1.2067 C   0  0  0  0  0  0  0  0  0  0  0  0
    4.0637    0.3261   -0.5398 C   0  0  0  0  0  0  0  0  0  0  0  0
    5.4102    0.5024   -0.8545 C   0  0  0  0  0  0  0  0  0  0  0  0
    6.3334    1.5562   -0.3896 C   0  0  0  0  0  0  0  0  0  0  0  0
    7.7688    1.1627   -0.5609 C   0  0  0  0  0  0  0  0  0  0  0  0
    6.0273    1.8429    1.0829 C   0  0  0  0  0  0  0  0  0  0  0  0
    5.6964   -0.5127   -1.6820 N   0  0  0  0  0  0  0  0  0  0  0  0
    4.6444   -1.2650   -1.8788 O   0  0  0  0  0  0  0  0  0  0  0  0
  1  2  2  0
  2  3  1  0
  3  4  1  0
  3  5  1  0
  3  6  1  0
  6  7  1  0
  7  8  2  0
  7  9  1  0
  9 10  1  0
 10 11  1  1
 10 12  1  0
 12 13  1  0
 13 14  1  6
 13 15  1  0
 15 16  1  0
 16 17  2  0
 16 18  1  0
 18 19  2  0
 19 20  1  0
 20 21  1  0
 21 22  1  0
 21 23  1  0
 20 24  2  0
 24 25  1  0
 25 18  1  0
M  END
>  <zinc_id>  (74) 
ZINC001718919961

>  <smiles>  (74) 
C=CC(C)(C)CC(=O)N[C@@H](C)C[C@@H](C)NC(=O)c1cc(C(C)C)no1

$$$$

     RDKit          3D

 24 26  0  0  0  0  0  0  0  0999 V2000
    0.8586   -0.0308   -0.2753 O   0  0  0  0  0  0  0  0  0  0  0  0
    1.0136    0.4652    0.3237 C   0  0  0  0  0  0  0  0  0  0  0  0
    2.3230    0.5596    0.8670 O   0  0  0  0  0  0  0  0  0  0  0  0
    3.3534   -0.2459    0.3243 C   0  0  0  0  0  0  0  0  0  0  0  0
    4.1203    0.2072   -0.7141 C   0  0  0  0  0  0  0  0  0  0  0  0
    5.1142   -0.5588   -1.2441 C   0  0  0  0  0  0  0  0  0  0  0  0
    5.3513   -1.8065   -0.7285 C   0  0  0  0  0  0  0  0  0  0  0  0
    4.5908   -2.2890    0.3213 C   0  0  0  0  0  0  0  0  0  0  0  0
    3.5918   -1.4954    0.8398 C   0  0  0  0  0  0  0  0  0  0  0  0
    2.5917   -2.0494    2.1717 Cl  0  0  0  0  0  0  0  0  0  0  0  0
   -0.0084    1.4717    1.0908 C   0  0  1  0  0  0  0  0  0  0  0  0
    0.4165    2.7741    0.1670 C   0  0  0  0  0  0  0  0  0  0  0  0
   -0.5913    3.8129    0.6696 C   0  0  0  0  0  0  0  0  0  0  0  0
   -1.9079    3.4515   -0.0126 C   0  0  0  0  0  0  0  0  0  0  0  0
   -1.7636    2.0482   -0.6035 C   0  0  0  0  0  0  0  0  0  0  0  0
   -1.2595    1.0982    0.2886 N   0  0  0  0  0  0  0  0  0  0  0  0
   -1.8146   -0.1651    0.5080 C   0  0  0  0  0  0  0  0  0  0  0  0
   -1.3191   -0.9926    1.3398 O   0  0  0  0  0  0  0  0  0  0  0  0
   -2.9970   -0.5911   -0.2153 C   0  0  0  0  0  0  0  0  0  0  0  0
   -3.6229    0.2218   -1.1441 C   0  0  0  0  0  0  0  0  0  0  0  0
   -4.7325   -0.2338   -1.7935 C   0  0  0  0  0  0  0  0  0  0  0  0
   -5.2085   -1.5121   -1.5026 C   0  0  0  0  0  0  0  0  0  0  0  0
   -4.5971   -2.2896   -0.6039 N   0  0  0  0  0  0  0  0  0  0  0  0
   -3.5028   -1.8506    0.0419 C   0  0  0  0  0  0  0  0  0  0  0  0
  1  2  2  0
  2  3  1  0
  3  4  1  0
  4  5  2  0
  5  6  1  0
  6  7  2  0
  7  8  1  0
  8  9  2  0
  9 10  1  0
 11  2  1  6
 11 12  1  0
 12 13  1  0
 13 14  1  0
 14 15  1  0
 15 16  1  0
 16 17  1  0
 17 18  2  0
 17 19  1  0
 19 20  2  0
 20 21  1  0
 21 22  2  0
 22 23  1  0
 23 24  2  0
  9  4  1  0
 16 11  1  0
 24 19  1  0
M  END
>  <zinc_id>  (75) 
ZINC000151426193

>  <smiles>  (75) 
O=C(Oc1ccccc1Cl)[C@H]1CCCCN1C(=O)c1cccnc1

$$$$

     RDKit          3D

 29 32  0  0  0  0  0  0  0  0999 V2000
   -4.3137   -1.9013   -1.6541 C   0  0  0  0  0  0  0  0  0  0  0  0
   -4.5122   -1.3547   -1.4846 C   0  0  0  0  0  0  0  0  0  0  0  0
   -3.3956   -0.1521   -1.3199 C   0  0  1  0  0  0  0  0  0  0  0  0
   -4.4105    1.0144   -0.8827 C   0  0  0  0  0  0  0  0  0  0  0  0
   -4.5397    2.2199   -1.5680 C   0  0  0  0  0  0  0  0  0  0  0  0
   -5.5020    2.9115   -0.8642 C   0  0  0  0  0  0  0  0  0  0  0  0
   -5.8939    2.1070    0.1836 C   0  0  0  0  0  0  0  0  0  0  0  0
   -5.1881    0.9372    0.1318 N   0  0  0  0  0  0  0  0  0  0  0  0
   -5.2327   -0.2045    0.9880 C   0  0  0  0  0  0  0  0  0  0  0  0
   -3.8422   -0.7153    1.1665 C   0  0  0  0  0  0  0  0  0  0  0  0
   -2.9633   -0.5639    0.1058 N   0  0  0  0  0  0  0  0  0  0  0  0
   -1.5799   -0.7788    0.2520 C   0  0  0  0  0  0  0  0  0  0  0  0
   -1.0810   -1.1259    1.3840 O   0  0  0  0  0  0  0  0  0  0  0  0
   -0.6427   -0.6148   -0.8889 C   0  0  0  0  0  0  0  0  0  0  0  0
    0.7180   -0.8858   -0.5033 N   0  0  0  0  0  0  0  0  0  0  0  0
    1.4217   -2.1349   -0.5320 C   0  0  0  0  0  0  0  0  0  0  0  0
    0.9181   -3.2363   -0.9170 O   0  0  0  0  0  0  0  0  0  0  0  0
    2.7441   -1.9059   -0.0623 N   0  0  0  0  0  0  0  0  0  0  0  0
    2.7374   -0.6354    0.6341 C   0  0  1  0  0  0  0  0  0  0  0  0
    2.4720   -0.8579    2.1299 C   0  0  0  0  0  0  0  0  0  0  0  0
    4.0266    0.0790    0.4800 C   0  0  0  0  0  0  0  0  0  0  0  0
    4.8612    0.2168    1.5636 C   0  0  0  0  0  0  0  0  0  0  0  0
    6.0768    0.8801    1.4559 C   0  0  0  0  0  0  0  0  0  0  0  0
    6.4241    1.3930    0.2459 C   0  0  0  0  0  0  0  0  0  0  0  0
    7.5843    2.0463    0.0692 F   0  0  0  0  0  0  0  0  0  0  0  0
    5.5733    1.2502   -0.8502 C   0  0  0  0  0  0  0  0  0  0  0  0
    4.3739    0.5964   -0.7459 C   0  0  0  0  0  0  0  0  0  0  0  0
    1.6255    0.0849   -0.0153 C   0  0  0  0  0  0  0  0  0  0  0  0
    1.5407    1.3308   -0.0968 O   0  0  0  0  0  0  0  0  0  0  0  0
  1  2  1  0
  3  2  1  1
  3  4  1  0
  4  5  2  0
  5  6  1  0
  6  7  2  0
  7  8  1  0
  8  9  1  0
  9 10  1  0
 10 11  1  0
 11 12  1  0
 12 13  2  0
 12 14  1  0
 14 15  1  0
 15 16  1  0
 16 17  2  0
 16 18  1  0
 18 19  1  0
 19 20  1  1
 19 21  1  0
 21 22  2  0
 22 23  1  0
 23 24  2  0
 24 25  1  0
 24 26  1  0
 26 27  2  0
 19 28  1  0
 28 29  2  0
 11  3  1  0
 28 15  1  0
  8  4  1  0
 27 21  1  0
M  END
>  <zinc_id>  (76) 
ZINC000151426219

>  <smiles>  (76) 
CC[C@H]1c2cccn2CCN1C(=O)CN1C(=O)N[C@@](C)(c2ccc(F)cc2)C1=O

$$$$

     RDKit          3D

 23 25  0  0  0  0  0  0  0  0999 V2000
   -4.7730   -0.6865   -1.3088 C   0  0  0  0  0  0  0  0  0  0  0  0
   -4.0892   -0.3472   -0.1218 C   0  0  2  0  0  0  0  0  0  0  0  0
   -3.7908   -1.7161    0.5026 C   0  0  0  0  0  0  0  0  0  0  0  0
   -3.1181   -1.5801    1.6823 O   0  0  0  0  0  0  0  0  0  0  0  0
   -5.0548    0.4624    0.6684 C   0  0  0  0  0  0  0  0  0  0  0  0
   -4.5030    1.4721    1.5858 C   0  0  0  0  0  0  0  0  0  0  0  0
   -3.0644    1.4409    1.8299 C   0  0  0  0  0  0  0  0  0  0  0  0
   -2.2486    1.0964    0.6701 N   0  0  0  0  0  0  0  0  0  0  0  0
   -0.8726    1.4696    0.6511 C   0  0  0  0  0  0  0  0  0  0  0  0
   -0.3703    2.0634    1.5924 O   0  0  0  0  0  0  0  0  0  0  0  0
   -0.0615    1.0768   -0.6339 C   0  0  2  0  0  0  0  0  0  0  0  0
   -0.2422   -0.5488   -0.4486 C   0  0  0  0  0  0  0  0  0  0  0  0
    1.0775   -0.9630   -0.9951 C   0  0  0  0  0  0  0  0  0  0  0  0
    1.4023   -2.0921   -1.4803 O   0  0  0  0  0  0  0  0  0  0  0  0
    2.0027    0.1109   -0.9124 N   0  0  0  0  0  0  0  0  0  0  0  0
    3.2453    0.2827   -1.6381 C   0  0  0  0  0  0  0  0  0  0  0  0
    4.3441   -0.3314   -0.8592 C   0  0  0  0  0  0  0  0  0  0  0  0
    4.7507   -1.6236   -0.9732 C   0  0  0  0  0  0  0  0  0  0  0  0
    5.8001   -1.7524   -0.0565 C   0  0  0  0  0  0  0  0  0  0  0  0
    5.9564   -0.5261    0.5505 C   0  0  0  0  0  0  0  0  0  0  0  0
    5.0580    0.2798    0.0284 O   0  0  0  0  0  0  0  0  0  0  0  0
    1.4216    1.0222    0.0798 C   0  0  0  0  0  0  0  0  0  0  0  0
   -2.8703    0.4050   -0.4132 C   0  0  0  0  0  0  0  0  0  0  0  0
  2  1  1  6
  2  3  1  0
  3  4  1  0
  2  5  1  0
  5  6  1  0
  6  7  1  0
  7  8  1  0
  8  9  1  0
  9 10  2  0
 11  9  1  1
 11 12  1  0
 12 13  1  0
 13 14  2  0
 13 15  1  0
 15 16  1  0
 16 17  1  0
 17 18  2  0
 18 19  1  0
 19 20  2  0
 20 21  1  0
 15 22  1  0
  8 23  1  0
 23  2  1  0
 22 11  1  0
 21 17  1  0
M  END
>  <zinc_id>  (77) 
ZINC000151426227

>  <smiles>  (77) 
C[C@]1(CO)CCCN(C(=O)[C@@H]2CC(=O)N(Cc3ccco3)C2)C1

$$$$

     RDKit          3D

 27 29  0  0  0  0  0  0  0  0999 V2000
   -3.5738   -3.1346   -2.7405 C   0  0  0  0  0  0  0  0  0  0  0  0
   -3.3664   -1.9657   -2.0596 O   0  0  0  0  0  0  0  0  0  0  0  0
   -2.1501   -1.3810   -2.0519 C   0  0  0  0  0  0  0  0  0  0  0  0
   -1.2276   -1.9315   -2.6769 O   0  0  0  0  0  0  0  0  0  0  0  0
   -1.8542   -0.0408   -1.2930 C   0  0  1  0  0  0  0  0  0  0  0  0
   -2.4410   -0.5792    0.1311 C   0  0  0  0  0  0  0  0  0  0  0  0
   -2.2256    0.6467    1.1664 C   0  0  2  0  0  0  0  0  0  0  0  0
   -3.2555    1.6698    0.5891 C   0  0  0  0  0  0  0  0  0  0  0  0
   -3.8422    2.3933    1.6115 C   0  0  0  0  0  0  0  0  0  0  0  0
   -4.8085    3.3776    1.2980 C   0  0  0  0  0  0  0  0  0  0  0  0
   -5.1540    3.6053   -0.0138 C   0  0  0  0  0  0  0  0  0  0  0  0
   -4.5512    2.8692   -0.9954 C   0  0  0  0  0  0  0  0  0  0  0  0
   -3.6168    1.9236   -0.6301 C   0  0  0  0  0  0  0  0  0  0  0  0
   -0.8651    1.3152    0.5664 C   0  0  0  0  0  0  0  0  0  0  0  0
   -0.0564    0.1522    0.3252 N   0  0  0  0  0  0  0  0  0  0  0  0
    0.8829   -0.3616    1.2015 C   0  0  0  0  0  0  0  0  0  0  0  0
    1.0600    0.2241    2.3080 O   0  0  0  0  0  0  0  0  0  0  0  0
    1.6233   -1.5745    0.7781 C   0  0  0  0  0  0  0  0  0  0  0  0
    2.7537   -1.9748    2.1168 S   0  0  0  0  0  0  0  0  0  0  0  0
    3.9956   -0.6560    2.2567 C   0  0  0  0  0  0  0  0  0  0  0  0
    4.8079   -0.7007    1.0132 C   0  0  0  0  0  0  0  0  0  0  0  0
    5.9434   -1.4562    0.8818 C   0  0  0  0  0  0  0  0  0  0  0  0
    6.6484   -1.4527   -0.2964 C   0  0  0  0  0  0  0  0  0  0  0  0
    6.1756   -0.6686   -1.3318 C   0  0  0  0  0  0  0  0  0  0  0  0
    5.0259    0.0958   -1.1975 C   0  0  0  0  0  0  0  0  0  0  0  0
    4.3927    0.0412   -0.0195 N   0  0  0  0  0  0  0  0  0  0  0  0
   -0.3211   -0.4359   -0.9373 C   0  0  0  0  0  0  0  0  0  0  0  0
  1  2  1  0
  2  3  1  0
  3  4  2  0
  5  3  1  6
  5  6  1  0
  6  7  1  0
  7  8  1  6
  8  9  2  0
  9 10  1  0
 10 11  2  0
 11 12  1  0
 12 13  2  0
  7 14  1  0
 14 15  1  0
 15 16  1  0
 16 17  2  0
 16 18  1  0
 18 19  1  0
 19 20  1  0
 20 21  1  0
 21 22  2  0
 22 23  1  0
 23 24  2  0
 24 25  1  0
 25 26  2  0
 15 27  1  0
 27  5  1  0
 13  8  1  0
 26 21  1  0
M  END
>  <zinc_id>  (78) 
ZINC000151426230

>  <smiles>  (78) 
COC(=O)[C@H]1C[C@H](c2ccccc2)CN(C(=O)CSCc2ccccn2)C1

$$$$

     RDKit          3D

 24 26  0  0  0  0  0  0  0  0999 V2000
   -3.8510   -3.1012   -0.3252 C   0  0  0  0  0  0  0  0  0  0  0  0
   -4.0835   -1.9891   -0.1107 O   0  0  0  0  0  0  0  0  0  0  0  0
   -3.0588   -1.1221   -0.8659 C   0  0  2  0  0  0  0  0  0  0  0  0
   -1.7485   -1.7735   -0.0829 C   0  0  0  0  0  0  0  0  0  0  0  0
   -0.6129   -1.0667   -0.6510 N   0  0  0  0  0  0  0  0  0  0  0  0
    0.6836   -1.3759   -0.2105 C   0  0  0  0  0  0  0  0  0  0  0  0
    0.7679   -2.2903    0.6882 O   0  0  0  0  0  0  0  0  0  0  0  0
    1.8685   -0.8072   -0.6380 N   0  0  0  0  0  0  0  0  0  0  0  0
    1.8374    0.2118   -1.6166 C   0  0  0  0  0  0  0  0  0  0  0  0
    2.8764    1.1627   -1.7190 C   0  0  0  0  0  0  0  0  0  0  0  0
    4.2941    0.7299   -0.9898 C   0  0  1  0  0  0  0  0  0  0  0  0
    4.5020    2.1760   -0.4732 O   0  0  0  0  0  0  0  0  0  0  0  0
    5.0979    2.0491    0.7614 C   0  0  0  0  0  0  0  0  0  0  0  0
    5.9089    0.8034    0.9158 C   0  0  0  0  0  0  0  0  0  0  0  0
    5.0426   -0.4327    0.9958 C   0  0  0  0  0  0  0  0  0  0  0  0
    3.6161    0.2228    0.5054 C   0  0  2  0  0  0  0  0  0  0  0  0
    3.1250   -1.2113   -0.1351 C   0  0  0  0  0  0  0  0  0  0  0  0
   -3.2419    0.1388    0.1018 C   0  0  0  0  0  0  0  0  0  0  0  0
   -2.3306    0.4603    1.0271 C   0  0  0  0  0  0  0  0  0  0  0  0
   -2.5204    1.5656    1.8274 C   0  0  0  0  0  0  0  0  0  0  0  0
   -3.6538    2.3522    1.6812 C   0  0  0  0  0  0  0  0  0  0  0  0
   -4.5665    1.9850    0.7162 C   0  0  0  0  0  0  0  0  0  0  0  0
   -4.3809    0.8842   -0.0831 C   0  0  0  0  0  0  0  0  0  0  0  0
   -5.5717    0.4282   -1.3192 Cl  0  0  0  0  0  0  0  0  0  0  0  0
  1  2  1  0
  2  3  1  0
  3  4  1  1
  4  5  1  0
  5  6  1  0
  6  7  2  0
  6  8  1  0
  8  9  1  0
  9 10  1  0
 11 10  1  6
 11 12  1  0
 12 13  1  0
 13 14  1  0
 14 15  1  0
 16 15  1  1
 16 17  1  0
  3 18  1  0
 18 19  2  0
 19 20  1  0
 20 21  2  0
 21 22  1  0
 22 23  2  0
 23 24  1  0
 17  8  1  0
 23 18  1  0
 16 11  1  0
M  END
>  <zinc_id>  (79) 
ZINC000151426241

>  <smiles>  (79) 
CO[C@H](CNC(=O)N1CC[C@H]2OCCC[C@@H]2C1)c1ccccc1Cl

$$$$

     RDKit          3D

 23 26  0  0  0  0  0  0  0  0999 V2000
    1.3257   -2.9845   -0.8819 O   0  0  0  0  0  0  0  0  0  0  0  0
    1.0175   -2.1738   -0.5884 C   0  0  0  0  0  0  0  0  0  0  0  0
    1.9338   -1.0331   -0.3500 C   0  0  0  0  0  0  0  0  0  0  0  0
    3.2876   -1.1809   -0.5716 C   0  0  0  0  0  0  0  0  0  0  0  0
    4.1794   -0.1239   -0.3563 C   0  0  0  0  0  0  0  0  0  0  0  0
    3.7170    1.0859    0.0823 C   0  0  0  0  0  0  0  0  0  0  0  0
    4.3340    2.2343    0.3617 N   0  0  0  0  0  0  0  0  0  0  0  0
    3.4076    3.0760    0.7451 N   0  0  0  0  0  0  0  0  0  0  0  0
    2.2132    2.5084    0.7221 N   0  0  0  0  0  0  0  0  0  0  0  0
    2.3710    1.2403    0.3049 C   0  0  0  0  0  0  0  0  0  0  0  0
    1.5199    0.1943    0.0877 C   0  0  0  0  0  0  0  0  0  0  0  0
   -0.3666   -1.9209   -0.3302 N   0  0  0  0  0  0  0  0  0  0  0  0
   -1.4548   -2.8750   -0.4879 C   0  0  0  0  0  0  0  0  0  0  0  0
   -2.5712   -2.4066    0.3945 C   0  0  0  0  0  0  0  0  0  0  0  0
   -1.9140   -1.2767    1.2792 C   0  0  2  0  0  0  0  0  0  0  0  0
   -3.2465   -0.0020    1.1561 S   0  0  0  0  0  0  0  0  0  0  0  0
   -4.4415   -0.4979    1.9004 O   0  0  0  0  0  0  0  0  0  0  0  0
   -2.7323    1.1915    1.9541 O   0  0  0  0  0  0  0  0  0  0  0  0
   -3.5487    0.4804   -0.4177 N   0  0  0  0  0  0  0  0  0  0  0  0
   -2.5003    1.0990   -1.1437 C   0  0  0  0  0  0  0  0  0  0  0  0
   -2.8355    1.5087   -2.5510 C   0  0  0  0  0  0  0  0  0  0  0  0
   -2.6969    2.5780   -1.4365 C   0  0  0  0  0  0  0  0  0  0  0  0
   -0.9985   -0.7213    0.1270 C   0  0  0  0  0  0  0  0  0  0  0  0
  1  2  2  0
  2  3  1  0
  3  4  2  0
  4  5  1  0
  5  6  2  0
  6  7  1  0
  7  8  1  0
  8  9  2  0
  9 10  1  0
 10 11  2  0
  2 12  1  0
 12 13  1  0
 13 14  1  0
 14 15  1  0
 15 16  1  6
 16 17  2  0
 16 18  2  0
 16 19  1  0
 19 20  1  0
 20 21  1  0
 21 22  1  0
 15 23  1  0
 11  3  1  0
 23 12  1  0
 10  6  1  0
 22 20  1  0
M  END
>  <zinc_id>  (80) 
ZINC000151426242

>  <smiles>  (80) 
O=C(c1ccc2[nH]nnc2c1)N1CC[C@H](S(=O)(=O)NC2CC2)C1

$$$$

     RDKit          3D

 24 26  0  0  0  0  0  0  0  0999 V2000
    8.4011    0.7177   -1.3834 C   0  0  0  0  0  0  0  0  0  0  0  0
    7.2251   -0.0437   -0.8831 C   0  0  0  0  0  0  0  0  0  0  0  0
    7.1826   -1.2984   -0.4012 N   0  0  0  0  0  0  0  0  0  0  0  0
    5.9185   -1.5211   -0.0886 N   0  0  0  0  0  0  0  0  0  0  0  0
    5.1975   -0.4267   -0.3720 C   0  0  0  0  0  0  0  0  0  0  0  0
    3.7663   -0.2159   -0.1930 C   0  0  0  0  0  0  0  0  0  0  0  0
    2.9443   -1.2035    0.3289 C   0  0  0  0  0  0  0  0  0  0  0  0
    1.5879   -0.9903    0.4934 C   0  0  0  0  0  0  0  0  0  0  0  0
    0.9874    0.2037    0.1506 C   0  0  0  0  0  0  0  0  0  0  0  0
   -0.4092    0.4052    0.3268 N   0  0  0  0  0  0  0  0  0  0  0  0
   -1.2392   -0.6603    0.8796 C   0  0  0  0  0  0  0  0  0  0  0  0
   -2.6569   -0.2364    0.9755 C   0  0  0  0  0  0  0  0  0  0  0  0
   -3.1357    0.3813    2.1196 C   0  0  0  0  0  0  0  0  0  0  0  0
   -4.4520    0.7807    2.2219 C   0  0  0  0  0  0  0  0  0  0  0  0
   -5.3451    0.5842    1.1964 C   0  0  0  0  0  0  0  0  0  0  0  0
   -4.8769   -0.0293    0.0557 C   0  0  0  0  0  0  0  0  0  0  0  0
   -5.7671   -0.2321   -0.9827 O   0  0  0  0  0  0  0  0  0  0  0  0
   -7.1158    0.1761   -0.8801 C   0  0  0  0  0  0  0  0  0  0  0  0
   -7.8958   -0.1403   -2.1150 C   0  0  0  0  0  0  0  0  0  0  0  0
   -7.7318   -0.4447    0.3608 C   0  0  0  0  0  0  0  0  0  0  0  0
   -3.5619   -0.4309   -0.0529 C   0  0  0  0  0  0  0  0  0  0  0  0
    1.8043    1.1861   -0.3683 C   0  0  0  0  0  0  0  0  0  0  0  0
    3.1595    0.9743   -0.5332 C   0  0  0  0  0  0  0  0  0  0  0  0
    6.0128    0.4635   -0.8557 O   0  0  0  0  0  0  0  0  0  0  0  0
  1  2  1  0
  2  3  2  0
  3  4  1  0
  4  5  2  0
  5  6  1  0
  6  7  2  0
  7  8  1  0
  8  9  2  0
  9 10  1  0
 10 11  1  0
 11 12  1  0
 12 13  2  0
 13 14  1  0
 14 15  2  0
 15 16  1  0
 16 17  1  0
 17 18  1  0
 18 19  1  0
 18 20  1  0
 16 21  2  0
  9 22  1  0
 22 23  2  0
  5 24  1  0
 24  2  1  0
 23  6  1  0
 21 12  1  0
M  END
>  <zinc_id>  (81) 
ZINC000151426243

>  <smiles>  (81) 
Cc1nnc(-c2ccc(NCc3cccc(OC(C)C)c3)cc2)o1

$$$$

     RDKit          3D

 25 28  0  0  0  0  0  0  0  0999 V2000
   -3.0574    0.8200   -2.4988 C   0  0  0  0  0  0  0  0  0  0  0  0
   -2.7811    0.4230   -2.1652 C   0  0  0  0  0  0  0  0  0  0  0  0
   -3.5792   -0.6672   -1.2235 C   0  0  2  0  0  0  0  0  0  0  0  0
   -4.3462    0.4267   -0.3099 C   0  0  0  0  0  0  0  0  0  0  0  0
   -4.6898    1.7063   -0.4988 C   0  0  0  0  0  0  0  0  0  0  0  0
   -5.3531    2.0892    0.6484 C   0  0  0  0  0  0  0  0  0  0  0  0
   -5.3723    0.9805    1.4933 C   0  0  0  0  0  0  0  0  0  0  0  0
   -4.7477   -0.0363    0.8895 N   0  0  0  0  0  0  0  0  0  0  0  0
   -4.4320   -1.4297    1.2511 C   0  0  0  0  0  0  0  0  0  0  0  0
   -2.9585   -1.6802    1.0071 C   0  0  0  0  0  0  0  0  0  0  0  0
   -2.4882   -0.9801   -0.2090 N   0  0  0  0  0  0  0  0  0  0  0  0
   -1.1487   -0.7372   -0.3173 C   0  0  0  0  0  0  0  0  0  0  0  0
   -0.4847   -1.0923    0.7512 O   0  0  0  0  0  0  0  0  0  0  0  0
   -0.3470   -0.1650   -1.3972 C   0  0  0  0  0  0  0  0  0  0  0  0
    1.0711   -0.1142   -1.0310 C   0  0  0  0  0  0  0  0  0  0  0  0
    1.5735    0.9987   -0.4005 C   0  0  0  0  0  0  0  0  0  0  0  0
    2.9122    1.0879   -0.0360 C   0  0  0  0  0  0  0  0  0  0  0  0
    3.7501    0.0273   -0.3183 C   0  0  0  0  0  0  0  0  0  0  0  0
    5.1192    0.0881    0.0406 N   0  0  0  0  0  0  0  0  0  0  0  0
    5.6863    0.3802    1.2187 C   0  0  0  0  0  0  0  0  0  0  0  0
    7.0754    0.3161    1.0979 C   0  0  0  0  0  0  0  0  0  0  0  0
    7.2955   -0.0287   -0.2121 C   0  0  0  0  0  0  0  0  0  0  0  0
    6.1024   -0.1590   -0.8229 N   0  0  0  0  0  0  0  0  0  0  0  0
    3.2710   -1.1043   -0.9517 C   0  0  0  0  0  0  0  0  0  0  0  0
    1.9293   -1.1497   -1.2970 C   0  0  0  0  0  0  0  0  0  0  0  0
  1  2  1  0
  3  2  1  6
  3  4  1  0
  4  5  2  0
  5  6  1  0
  6  7  2  0
  7  8  1  0
  8  9  1  0
  9 10  1  0
 10 11  1  0
 11 12  1  0
 12 13  2  0
 12 14  1  0
 14 15  1  0
 15 16  2  0
 16 17  1  0
 17 18  2  0
 18 19  1  0
 19 20  1  0
 20 21  2  0
 21 22  1  0
 22 23  2  0
 18 24  1  0
 24 25  2  0
 11  3  1  0
 25 15  1  0
  8  4  1  0
 23 19  1  0
M  END
>  <zinc_id>  (82) 
ZINC000151426297

>  <smiles>  (82) 
CC[C@@H]1c2cccn2CCN1C(=O)Cc1ccc(-n2cccn2)cc1

$$$$

     RDKit          3D

 23 25  0  0  0  0  0  0  0  0999 V2000
   -5.5996    1.2061    0.7222 C   0  0  0  0  0  0  0  0  0  0  0  0
   -4.3017    1.0099    0.0208 C   0  0  1  0  0  0  0  0  0  0  0  0
   -4.5186    0.0876   -1.1750 C   0  0  0  0  0  0  0  0  0  0  0  0
   -4.9994   -1.1270   -0.7285 O   0  0  0  0  0  0  0  0  0  0  0  0
   -3.7830    2.3463   -0.4351 C   0  0  0  0  0  0  0  0  0  0  0  0
   -2.3398    2.5696   -0.1215 C   0  0  0  0  0  0  0  0  0  0  0  0
   -1.5600    1.3254   -0.4948 C   0  0  0  0  0  0  0  0  0  0  0  0
   -2.0637    0.2342    0.2908 N   0  0  0  0  0  0  0  0  0  0  0  0
   -1.2992   -0.9646    0.4429 C   0  0  0  0  0  0  0  0  0  0  0  0
   -1.6693   -1.9262    1.0954 O   0  0  0  0  0  0  0  0  0  0  0  0
    0.1085   -0.9590   -0.3194 C   0  0  2  0  0  0  0  0  0  0  0  0
    0.5687   -2.4673    0.1431 C   0  0  0  0  0  0  0  0  0  0  0  0
    2.0357   -2.1722    0.1124 C   0  0  0  0  0  0  0  0  0  0  0  0
    2.9293   -2.8684   -0.4266 O   0  0  0  0  0  0  0  0  0  0  0  0
    2.1938   -0.9587    0.8110 N   0  0  0  0  0  0  0  0  0  0  0  0
    3.4207   -0.4276    1.3690 C   0  0  0  0  0  0  0  0  0  0  0  0
    4.0990    0.4123    0.3520 C   0  0  0  0  0  0  0  0  0  0  0  0
    3.9770    1.7615    0.0942 C   0  0  0  0  0  0  0  0  0  0  0  0
    4.8242    2.0517   -0.9532 C   0  0  0  0  0  0  0  0  0  0  0  0
    5.4253    0.8699   -1.2887 C   0  0  0  0  0  0  0  0  0  0  0  0
    4.9704   -0.0553   -0.5002 O   0  0  0  0  0  0  0  0  0  0  0  0
    0.9318   -0.2471    0.9255 C   0  0  0  0  0  0  0  0  0  0  0  0
   -3.3501    0.2991    0.9543 C   0  0  0  0  0  0  0  0  0  0  0  0
  2  1  1  1
  2  3  1  0
  3  4  1  0
  2  5  1  0
  5  6  1  0
  6  7  1  0
  7  8  1  0
  8  9  1  0
  9 10  2  0
 11  9  1  1
 11 12  1  0
 12 13  1  0
 13 14  2  0
 13 15  1  0
 15 16  1  0
 16 17  1  0
 17 18  2  0
 18 19  1  0
 19 20  2  0
 20 21  1  0
 15 22  1  0
  8 23  1  0
 23  2  1  0
 22 11  1  0
 21 17  1  0
M  END
>  <zinc_id>  (83) 
ZINC000151426306

>  <smiles>  (83) 
C[C@@]1(CO)CCCN(C(=O)[C@@H]2CC(=O)N(Cc3ccco3)C2)C1

$$$$

     RDKit          3D

 23 26  0  0  0  0  0  0  0  0999 V2000
   -0.4267    1.4262    1.2813 O   0  0  0  0  0  0  0  0  0  0  0  0
   -0.5998    0.7388    0.5559 C   0  0  0  0  0  0  0  0  0  0  0  0
   -1.9973    0.4739    0.1353 C   0  0  0  0  0  0  0  0  0  0  0  0
   -2.2919   -0.4372   -0.8327 C   0  0  0  0  0  0  0  0  0  0  0  0
   -3.5956   -0.6583   -1.1987 C   0  0  0  0  0  0  0  0  0  0  0  0
   -4.6429    0.0222   -0.6104 C   0  0  0  0  0  0  0  0  0  0  0  0
   -5.9797    0.0423   -0.7320 N   0  0  0  0  0  0  0  0  0  0  0  0
   -6.5077    0.9140    0.1080 N   0  0  0  0  0  0  0  0  0  0  0  0
   -5.5113    1.4581    0.7734 N   0  0  0  0  0  0  0  0  0  0  0  0
   -4.3183    0.9354    0.3628 C   0  0  0  0  0  0  0  0  0  0  0  0
   -3.0229    1.1605    0.7320 C   0  0  0  0  0  0  0  0  0  0  0  0
    0.4206    0.0207   -0.0744 N   0  0  0  0  0  0  0  0  0  0  0  0
    0.2931   -0.9604   -1.0970 C   0  0  0  0  0  0  0  0  0  0  0  0
    1.5781   -1.7968   -1.0359 C   0  0  0  0  0  0  0  0  0  0  0  0
    2.1456   -1.3851    0.4006 C   0  0  1  0  0  0  0  0  0  0  0  0
    3.9341   -1.3243   -0.0766 S   0  0  0  0  0  0  0  0  0  0  0  0
    4.1196   -0.3917   -1.2197 O   0  0  0  0  0  0  0  0  0  0  0  0
    4.2928   -2.7426   -0.4439 O   0  0  0  0  0  0  0  0  0  0  0  0
    4.7586   -0.8964    1.3355 N   0  0  0  0  0  0  0  0  0  0  0  0
    5.3867    0.3672    1.3784 C   0  0  0  0  0  0  0  0  0  0  0  0
    4.5699    1.6421    1.2192 C   0  0  0  0  0  0  0  0  0  0  0  0
    5.5710    1.2466    0.2082 C   0  0  0  0  0  0  0  0  0  0  0  0
    1.8239    0.1448    0.2017 C   0  0  0  0  0  0  0  0  0  0  0  0
  1  2  2  0
  2  3  1  0
  3  4  2  0
  4  5  1  0
  5  6  2  0
  6  7  1  0
  7  8  1  0
  8  9  2  0
  9 10  1  0
 10 11  2  0
  2 12  1  0
 12 13  1  0
 13 14  1  0
 14 15  1  0
 15 16  1  6
 16 17  2  0
 16 18  2  0
 16 19  1  0
 19 20  1  0
 20 21  1  0
 21 22  1  0
 15 23  1  0
 11  3  1  0
 23 12  1  0
 10  6  1  0
 22 20  1  0
M  END
>  <zinc_id>  (84) 
ZINC000151426317

>  <smiles>  (84) 
O=C(c1ccc2[nH]nnc2c1)N1CC[C@@H](S(=O)(=O)NC2CC2)C1

$$$$

     RDKit          3D

 27 29  0  0  0  0  0  0  0  0999 V2000
   -3.8368    4.3785    1.6673 C   0  0  0  0  0  0  0  0  0  0  0  0
   -3.1525    3.9382    0.8558 O   0  0  0  0  0  0  0  0  0  0  0  0
   -3.2423    2.6323    0.3898 C   0  0  0  0  0  0  0  0  0  0  0  0
   -4.0759    1.8679    0.8349 O   0  0  0  0  0  0  0  0  0  0  0  0
   -2.2249    2.1742   -0.7409 C   0  0  2  0  0  0  0  0  0  0  0  0
   -2.6501    0.6334   -0.9108 C   0  0  0  0  0  0  0  0  0  0  0  0
   -2.5081   -0.0258    0.5601 C   0  0  1  0  0  0  0  0  0  0  0  0
   -3.0293   -1.4597    0.1352 C   0  0  0  0  0  0  0  0  0  0  0  0
   -2.4740   -2.5533    0.7513 C   0  0  0  0  0  0  0  0  0  0  0  0
   -2.9195   -3.8121    0.4052 C   0  0  0  0  0  0  0  0  0  0  0  0
   -3.9121   -3.9712   -0.5493 C   0  0  0  0  0  0  0  0  0  0  0  0
   -4.4707   -2.8683   -1.1691 C   0  0  0  0  0  0  0  0  0  0  0  0
   -3.9889   -1.6041   -0.7886 C   0  0  0  0  0  0  0  0  0  0  0  0
   -0.9299   -0.4163    0.4029 C   0  0  0  0  0  0  0  0  0  0  0  0
   -0.2800    0.8071    0.0058 N   0  0  0  0  0  0  0  0  0  0  0  0
    0.9746    0.7819   -0.6016 C   0  0  0  0  0  0  0  0  0  0  0  0
    1.6368    1.7686   -0.9926 O   0  0  0  0  0  0  0  0  0  0  0  0
    1.6237   -0.5520   -0.8215 C   0  0  0  0  0  0  0  0  0  0  0  0
    2.0868   -1.0743    0.8664 S   0  0  0  0  0  0  0  0  0  0  0  0
    3.4070    0.0225    1.4396 C   0  0  0  0  0  0  0  0  0  0  0  0
    4.6637   -0.2157    0.7072 C   0  0  0  0  0  0  0  0  0  0  0  0
    4.9237    0.4459   -0.4388 C   0  0  0  0  0  0  0  0  0  0  0  0
    6.1106    0.2414   -1.1544 C   0  0  0  0  0  0  0  0  0  0  0  0
    6.9733   -0.6817   -0.5921 C   0  0  0  0  0  0  0  0  0  0  0  0
    6.7142   -1.3496    0.5606 C   0  0  0  0  0  0  0  0  0  0  0  0
    5.5419   -1.0982    1.2000 N   0  0  0  0  0  0  0  0  0  0  0  0
   -0.9613    1.9904    0.2671 C   0  0  0  0  0  0  0  0  0  0  0  0
  1  2  1  0
  2  3  1  0
  3  4  2  0
  5  3  1  1
  5  6  1  0
  6  7  1  0
  7  8  1  6
  8  9  2  0
  9 10  1  0
 10 11  2  0
 11 12  1  0
 12 13  2  0
  7 14  1  0
 14 15  1  0
 15 16  1  0
 16 17  2  0
 16 18  1  0
 18 19  1  0
 19 20  1  0
 20 21  1  0
 21 22  2  0
 22 23  1  0
 23 24  2  0
 24 25  1  0
 25 26  2  0
 15 27  1  0
 27  5  1  0
 13  8  1  0
 26 21  1  0
M  END
>  <zinc_id>  (85) 
ZINC000151426320

>  <smiles>  (85) 
COC(=O)[C@@H]1C[C@@H](c2ccccc2)CN(C(=O)CSCc2ccccn2)C1

$$$$

     RDKit          3D

 23 25  0  0  0  0  0  0  0  0999 V2000
   -8.1265   -1.0390   -1.2737 C   0  0  0  0  0  0  0  0  0  0  0  0
   -6.9598   -0.6352   -0.4067 C   0  0  0  0  0  0  0  0  0  0  0  0
   -7.1280   -0.2373    0.8812 N   0  0  0  0  0  0  0  0  0  0  0  0
   -5.9183    0.0468    1.3249 N   0  0  0  0  0  0  0  0  0  0  0  0
   -5.0324   -0.1537    0.3777 C   0  0  0  0  0  0  0  0  0  0  0  0
   -3.5748    0.0410    0.4026 C   0  0  0  0  0  0  0  0  0  0  0  0
   -2.9052    0.3917    1.5958 C   0  0  0  0  0  0  0  0  0  0  0  0
   -1.5014    0.5495    1.6391 C   0  0  0  0  0  0  0  0  0  0  0  0
   -0.7799    0.3504    0.4521 C   0  0  0  0  0  0  0  0  0  0  0  0
    0.6693    0.4798    0.4127 N   0  0  0  0  0  0  0  0  0  0  0  0
    1.3771    0.0175   -0.7713 C   0  0  0  0  0  0  0  0  0  0  0  0
    2.8259    0.1264   -0.6387 C   0  0  0  0  0  0  0  0  0  0  0  0
    3.7184    0.8078   -1.4480 C   0  0  0  0  0  0  0  0  0  0  0  0
    4.9766    0.7664   -1.1797 N   0  0  0  0  0  0  0  0  0  0  0  0
    5.3926    0.0676   -0.1371 C   0  0  0  0  0  0  0  0  0  0  0  0
    6.8527   -0.0703    0.2120 C   0  0  0  0  0  0  0  0  0  0  0  0
    7.5302   -1.0523   -0.7082 C   0  0  0  0  0  0  0  0  0  0  0  0
    7.0572   -0.5026    1.6301 C   0  0  0  0  0  0  0  0  0  0  0  0
    7.5523    1.2857    0.0175 C   0  0  0  0  0  0  0  0  0  0  0  0
    3.9342   -0.5495    0.4908 S   0  0  0  0  0  0  0  0  0  0  0  0
   -1.4582    0.0202   -0.6638 C   0  0  0  0  0  0  0  0  0  0  0  0
   -2.8060   -0.1304   -0.7266 C   0  0  0  0  0  0  0  0  0  0  0  0
   -5.6960   -0.5806   -0.6998 O   0  0  0  0  0  0  0  0  0  0  0  0
  1  2  1  0
  2  3  2  0
  3  4  1  0
  4  5  2  0
  5  6  1  0
  6  7  2  0
  7  8  1  0
  8  9  2  0
  9 10  1  0
 10 11  1  0
 11 12  1  0
 12 13  2  0
 13 14  1  0
 14 15  2  0
 15 16  1  0
 16 17  1  0
 16 18  1  0
 16 19  1  0
 15 20  1  0
  9 21  1  0
 21 22  2  0
  5 23  1  0
 23  2  1  0
 22  6  1  0
 20 12  1  0
M  END
>  <zinc_id>  (86) 
ZINC000151426329

>  <smiles>  (86) 
Cc1nnc(-c2ccc(NCc3cnc(C(C)(C)C)s3)cc2)o1

$$$$

     RDKit          3D

 23 25  0  0  0  0  0  0  0  0999 V2000
   -3.9824    1.2194    1.1771 C   0  0  0  0  0  0  0  0  0  0  0  0
   -3.6341    0.1890    0.2031 C   0  0  2  0  0  0  0  0  0  0  0  0
   -4.8799   -0.0566   -0.6353 C   0  0  0  0  0  0  0  0  0  0  0  0
   -5.9485   -0.4862    0.1432 O   0  0  0  0  0  0  0  0  0  0  0  0
   -3.2331   -1.0402    0.9739 C   0  0  0  0  0  0  0  0  0  0  0  0
   -2.6262   -2.1045    0.0987 C   0  0  0  0  0  0  0  0  0  0  0  0
   -2.3651   -1.6436   -1.3007 C   0  0  0  0  0  0  0  0  0  0  0  0
   -1.7055   -0.3283   -1.2425 N   0  0  0  0  0  0  0  0  0  0  0  0
   -0.3939   -0.1211   -1.6709 C   0  0  0  0  0  0  0  0  0  0  0  0
    0.3139   -0.9981   -2.1290 O   0  0  0  0  0  0  0  0  0  0  0  0
    0.1109    1.3601   -1.5147 C   0  0  1  0  0  0  0  0  0  0  0  0
   -0.0887    1.4300    0.1225 C   0  0  0  0  0  0  0  0  0  0  0  0
    0.6202    0.2324    0.5542 C   0  0  0  0  0  0  0  0  0  0  0  0
    0.3380   -0.5252    1.5242 O   0  0  0  0  0  0  0  0  0  0  0  0
    1.7112    0.0575   -0.3245 N   0  0  0  0  0  0  0  0  0  0  0  0
    2.7176   -0.9713   -0.1698 C   0  0  0  0  0  0  0  0  0  0  0  0
    3.8659   -0.5210    0.6574 C   0  0  0  0  0  0  0  0  0  0  0  0
    5.0043    0.0960    0.1434 C   0  0  0  0  0  0  0  0  0  0  0  0
    5.8502    0.3696    1.2073 C   0  0  0  0  0  0  0  0  0  0  0  0
    5.1604   -0.1061    2.3152 C   0  0  0  0  0  0  0  0  0  0  0  0
    4.0290   -0.6061    1.9410 O   0  0  0  0  0  0  0  0  0  0  0  0
    1.7108    1.0061   -1.3792 C   0  0  0  0  0  0  0  0  0  0  0  0
   -2.5750    0.7209   -0.6947 C   0  0  0  0  0  0  0  0  0  0  0  0
  2  1  1  1
  2  3  1  0
  3  4  1  0
  2  5  1  0
  5  6  1  0
  6  7  1  0
  7  8  1  0
  8  9  1  0
  9 10  2  0
 11  9  1  1
 11 12  1  0
 12 13  1  0
 13 14  2  0
 13 15  1  0
 15 16  1  0
 16 17  1  0
 17 18  2  0
 18 19  1  0
 19 20  2  0
 20 21  1  0
 15 22  1  0
  8 23  1  0
 23  2  1  0
 22 11  1  0
 21 17  1  0
M  END
>  <zinc_id>  (87) 
ZINC000151426370

>  <smiles>  (87) 
C[C@]1(CO)CCCN(C(=O)[C@H]2CC(=O)N(Cc3ccco3)C2)C1

$$$$

     RDKit          3D

 19 20  0  0  0  0  0  0  0  0999 V2000
    4.6896   -1.2065    0.9276 C   0  0  0  0  0  0  0  0  0  0  0  0
    3.7419   -0.2984    0.7382 C   0  0  0  0  0  0  0  0  0  0  0  0
    3.8194    0.9754    1.2649 C   0  0  0  0  0  0  0  0  0  0  0  0
    2.8323    1.9402    1.0748 C   0  0  0  0  0  0  0  0  0  0  0  0
    1.7142    1.6349    0.3292 C   0  0  0  0  0  0  0  0  0  0  0  0
    1.6012    0.3896   -0.2067 C   0  0  0  0  0  0  0  0  0  0  0  0
    0.4049    0.0884   -0.9947 C   0  0  0  0  0  0  0  0  0  0  0  0
    0.4722    0.3264   -2.2273 O   0  0  0  0  0  0  0  0  0  0  0  0
   -0.7612   -0.4446   -0.3806 N   0  0  0  0  0  0  0  0  0  0  0  0
   -0.7855   -0.6964    1.0226 C   0  0  0  0  0  0  0  0  0  0  0  0
   -2.1084   -0.5312    1.6769 C   0  0  0  0  0  0  0  0  0  0  0  0
   -3.2862   -0.7192    0.7862 C   0  0  0  0  0  0  0  0  0  0  0  0
   -3.0941   -0.0401   -0.5474 C   0  0  2  0  0  0  0  0  0  0  0  0
   -2.6653    1.4134   -0.3196 C   0  0  0  0  0  0  0  0  0  0  0  0
   -4.3405   -0.1251   -1.3852 C   0  0  0  0  0  0  0  0  0  0  0  0
   -5.3659    0.4991   -0.6989 O   0  0  0  0  0  0  0  0  0  0  0  0
   -1.9133   -0.7206   -1.2209 C   0  0  0  0  0  0  0  0  0  0  0  0
    2.5971   -0.5724   -0.0106 C   0  0  0  0  0  0  0  0  0  0  0  0
    2.4476   -1.9131   -0.6032 C   0  0  0  0  0  0  0  0  0  0  0  0
  1  2  1  0
  2  3  2  0
  3  4  1  0
  4  5  2  0
  5  6  1  0
  6  7  1  0
  7  8  2  0
  7  9  1  0
  9 10  1  0
 10 11  1  0
 11 12  1  0
 12 13  1  0
 13 14  1  1
 13 15  1  0
 15 16  1  0
 13 17  1  0
  6 18  2  0
 18 19  1  0
 18  2  1  0
 17  9  1  0
M  END
>  <zinc_id>  (88) 
ZINC000151431166

>  <smiles>  (88) 
Cc1cccc(C(=O)N2CCC[C@](C)(CO)C2)c1C

$$$$

     RDKit          3D

 25 28  0  0  0  0  0  0  0  0999 V2000
   -3.8738   -1.7163    1.5626 C   0  0  0  0  0  0  0  0  0  0  0  0
   -3.6488   -2.1697    0.2685 C   0  0  0  0  0  0  0  0  0  0  0  0
   -2.9383   -0.9314   -0.5802 C   0  0  1  0  0  0  0  0  0  0  0  0
   -4.0864    0.0945   -0.4096 C   0  0  0  0  0  0  0  0  0  0  0  0
   -5.4446   -0.0210   -0.5919 C   0  0  0  0  0  0  0  0  0  0  0  0
   -6.0132    1.2098   -0.3476 C   0  0  0  0  0  0  0  0  0  0  0  0
   -4.9516    2.0270   -0.0212 C   0  0  0  0  0  0  0  0  0  0  0  0
   -3.7966    1.3169   -0.0682 N   0  0  0  0  0  0  0  0  0  0  0  0
   -2.4291    1.7300    0.2221 C   0  0  0  0  0  0  0  0  0  0  0  0
   -1.9929    0.6360    1.2674 C   0  0  0  0  0  0  0  0  0  0  0  0
   -1.9426   -0.5670    0.5090 N   0  0  0  0  0  0  0  0  0  0  0  0
   -0.8936   -1.4711    0.7189 C   0  0  0  0  0  0  0  0  0  0  0  0
   -0.7615   -2.5092    0.0501 O   0  0  0  0  0  0  0  0  0  0  0  0
    0.1402   -1.2205    1.7817 C   0  0  0  0  0  0  0  0  0  0  0  0
    1.3604   -0.8007    1.0641 C   0  0  0  0  0  0  0  0  0  0  0  0
    1.6075    0.5602    1.0341 C   0  0  0  0  0  0  0  0  0  0  0  0
    2.7049    1.0376    0.3512 C   0  0  0  0  0  0  0  0  0  0  0  0
    3.5770    0.1905   -0.3140 C   0  0  0  0  0  0  0  0  0  0  0  0
    4.6900    0.6816   -1.0313 N   0  0  0  0  0  0  0  0  0  0  0  0
    4.6662    1.0678   -2.3337 C   0  0  0  0  0  0  0  0  0  0  0  0
    5.9140    1.4903   -2.7053 C   0  0  0  0  0  0  0  0  0  0  0  0
    6.6926    1.3466   -1.5834 C   0  0  0  0  0  0  0  0  0  0  0  0
    5.9062    0.8493   -0.5851 N   0  0  0  0  0  0  0  0  0  0  0  0
    3.3148   -1.1657   -0.2728 C   0  0  0  0  0  0  0  0  0  0  0  0
    2.1993   -1.6656    0.4210 C   0  0  0  0  0  0  0  0  0  0  0  0
  1  2  1  0
  3  2  1  1
  3  4  1  0
  4  5  2  0
  5  6  1  0
  6  7  2  0
  7  8  1  0
  8  9  1  0
  9 10  1  0
 10 11  1  0
 11 12  1  0
 12 13  2  0
 12 14  1  0
 14 15  1  0
 15 16  2  0
 16 17  1  0
 17 18  2  0
 18 19  1  0
 19 20  1  0
 20 21  2  0
 21 22  1  0
 22 23  2  0
 18 24  1  0
 24 25  2  0
 11  3  1  0
 25 15  1  0
  8  4  1  0
 23 19  1  0
M  END
>  <zinc_id>  (89) 
ZINC000151426380

>  <smiles>  (89) 
CC[C@H]1c2cccn2CCN1C(=O)Cc1ccc(-n2cccn2)cc1

$$$$

     RDKit          3D

 24 26  0  0  0  0  0  0  0  0999 V2000
   -1.7149   -0.5616    1.6952 C   0  0  0  0  0  0  0  0  0  0  0  0
   -2.4420   -0.3975    1.2872 O   0  0  0  0  0  0  0  0  0  0  0  0
   -2.3480   -0.5491   -0.2048 C   0  0  2  0  0  0  0  0  0  0  0  0
   -1.2422    0.6042   -0.5352 C   0  0  0  0  0  0  0  0  0  0  0  0
   -0.0107    0.3247    0.0503 N   0  0  0  0  0  0  0  0  0  0  0  0
    0.8712   -0.7490   -0.1379 C   0  0  0  0  0  0  0  0  0  0  0  0
    0.5301   -1.6403   -0.9733 O   0  0  0  0  0  0  0  0  0  0  0  0
    2.0871   -0.7963    0.5986 N   0  0  0  0  0  0  0  0  0  0  0  0
    2.4122    0.2685    1.5371 C   0  0  0  0  0  0  0  0  0  0  0  0
    3.6615    0.8925    0.9512 C   0  0  0  0  0  0  0  0  0  0  0  0
    4.8159   -0.2703    1.1269 C   0  0  2  0  0  0  0  0  0  0  0  0
    5.9262    0.4391    0.3655 O   0  0  0  0  0  0  0  0  0  0  0  0
    5.4609    1.3145   -0.5027 C   0  0  0  0  0  0  0  0  0  0  0  0
    4.8566    0.6548   -1.7210 C   0  0  0  0  0  0  0  0  0  0  0  0
    3.7257   -0.2167   -1.1975 C   0  0  0  0  0  0  0  0  0  0  0  0
    4.3900   -1.2901   -0.1919 C   0  0  2  0  0  0  0  0  0  0  0  0
    3.0215   -1.8422    0.4724 C   0  0  0  0  0  0  0  0  0  0  0  0
   -3.6961    0.3040   -0.4998 C   0  0  0  0  0  0  0  0  0  0  0  0
   -3.6619    1.4915   -1.0754 C   0  0  0  0  0  0  0  0  0  0  0  0
   -4.8243    2.1868   -1.3127 C   0  0  0  0  0  0  0  0  0  0  0  0
   -6.0090    1.6257   -0.9422 C   0  0  0  0  0  0  0  0  0  0  0  0
   -6.0474    0.3908   -0.3428 C   0  0  0  0  0  0  0  0  0  0  0  0
   -4.8533   -0.2986   -0.1110 C   0  0  0  0  0  0  0  0  0  0  0  0
   -4.9091   -1.8855    0.6611 Cl  0  0  0  0  0  0  0  0  0  0  0  0
  1  2  1  0
  2  3  1  0
  3  4  1  6
  4  5  1  0
  5  6  1  0
  6  7  2  0
  6  8  1  0
  8  9  1  0
  9 10  1  0
 11 10  1  6
 11 12  1  0
 12 13  1  0
 13 14  1  0
 14 15  1  0
 16 15  1  6
 16 17  1  0
  3 18  1  0
 18 19  2  0
 19 20  1  0
 20 21  2  0
 21 22  1  0
 22 23  2  0
 23 24  1  0
 17  8  1  0
 23 18  1  0
 16 11  1  0
M  END
>  <zinc_id>  (90) 
ZINC000151426392

>  <smiles>  (90) 
CO[C@H](CNC(=O)N1CC[C@@H]2OCCC[C@@H]2C1)c1ccccc1Cl

$$$$

     RDKit          3D

 27 29  0  0  0  0  0  0  0  0999 V2000
   -4.2785   -4.4084    2.5298 C   0  0  0  0  0  0  0  0  0  0  0  0
   -3.3503   -3.8793    1.6938 O   0  0  0  0  0  0  0  0  0  0  0  0
   -3.4748   -2.6086    1.2227 C   0  0  0  0  0  0  0  0  0  0  0  0
   -4.4355   -1.9532    1.5635 O   0  0  0  0  0  0  0  0  0  0  0  0
   -2.4717   -1.9124    0.2678 C   0  0  1  0  0  0  0  0  0  0  0  0
   -3.0992   -0.4066    0.2517 C   0  0  0  0  0  0  0  0  0  0  0  0
   -2.1199    0.1548   -0.9393 C   0  0  1  0  0  0  0  0  0  0  0  0
   -2.7777    1.6138   -0.9929 C   0  0  0  0  0  0  0  0  0  0  0  0
   -3.0498    2.1325   -2.2105 C   0  0  0  0  0  0  0  0  0  0  0  0
   -3.6048    3.3925   -2.2811 C   0  0  0  0  0  0  0  0  0  0  0  0
   -3.8820    4.1190   -1.1433 C   0  0  0  0  0  0  0  0  0  0  0  0
   -3.5842    3.5386    0.0695 C   0  0  0  0  0  0  0  0  0  0  0  0
   -3.0258    2.2738    0.1496 C   0  0  0  0  0  0  0  0  0  0  0  0
   -0.9059    0.5870    0.0708 C   0  0  0  0  0  0  0  0  0  0  0  0
   -0.5004   -0.5608    0.8057 N   0  0  0  0  0  0  0  0  0  0  0  0
    0.8673   -0.8032    0.9352 C   0  0  0  0  0  0  0  0  0  0  0  0
    1.2903   -1.8141    1.6038 O   0  0  0  0  0  0  0  0  0  0  0  0
    1.8863    0.0669    0.3216 C   0  0  0  0  0  0  0  0  0  0  0  0
    2.4334   -0.8334   -1.1909 S   0  0  0  0  0  0  0  0  0  0  0  0
    3.6740    0.1899   -1.9765 C   0  0  0  0  0  0  0  0  0  0  0  0
    4.8708    0.2877   -1.1122 C   0  0  0  0  0  0  0  0  0  0  0  0
    5.9596   -0.5487   -1.1891 C   0  0  0  0  0  0  0  0  0  0  0  0
    7.0358   -0.3916   -0.3299 C   0  0  0  0  0  0  0  0  0  0  0  0
    7.0561    0.5845    0.6059 C   0  0  0  0  0  0  0  0  0  0  0  0
    5.9480    1.4158    0.6659 C   0  0  0  0  0  0  0  0  0  0  0  0
    4.9016    1.2722   -0.1570 N   0  0  0  0  0  0  0  0  0  0  0  0
   -1.3629   -1.5087    1.4384 C   0  0  0  0  0  0  0  0  0  0  0  0
  1  2  1  0
  2  3  1  0
  3  4  2  0
  5  3  1  1
  5  6  1  0
  6  7  1  0
  7  8  1  1
  8  9  2  0
  9 10  1  0
 10 11  2  0
 11 12  1  0
 12 13  2  0
  7 14  1  0
 14 15  1  0
 15 16  1  0
 16 17  2  0
 16 18  1  0
 18 19  1  0
 19 20  1  0
 20 21  1  0
 21 22  2  0
 22 23  1  0
 23 24  2  0
 24 25  1  0
 25 26  2  0
 15 27  1  0
 27  5  1  0
 13  8  1  0
 26 21  1  0
M  END
>  <zinc_id>  (91) 
ZINC000151426399

>  <smiles>  (91) 
COC(=O)[C@H]1C[C@@H](c2ccccc2)CN(C(=O)CSCc2ccccn2)C1

$$$$

     RDKit          3D

 21 23  0  0  0  0  0  0  0  0999 V2000
   -1.5531   -1.4076   -2.0887 O   0  0  0  0  0  0  0  0  0  0  0  0
   -1.4395   -0.5917   -1.3352 C   0  0  0  0  0  0  0  0  0  0  0  0
   -2.6534   -0.1378   -0.5986 C   0  0  0  0  0  0  0  0  0  0  0  0
   -3.0331   -0.6890    0.5539 C   0  0  0  0  0  0  0  0  0  0  0  0
   -4.1583   -0.2088    1.1577 C   0  0  0  0  0  0  0  0  0  0  0  0
   -4.8552   -0.7786    2.6852 Cl  0  0  0  0  0  0  0  0  0  0  0  0
   -4.6609    1.0158    0.0838 S   0  0  0  0  0  0  0  0  0  0  0  0
   -3.4285    0.8774   -1.0930 C   0  0  0  0  0  0  0  0  0  0  0  0
   -3.1800    1.7953   -2.5885 Cl  0  0  0  0  0  0  0  0  0  0  0  0
   -0.1865    0.0039   -1.0760 N   0  0  0  0  0  0  0  0  0  0  0  0
    1.0452   -0.3609   -1.7316 C   0  0  0  0  0  0  0  0  0  0  0  0
    1.8798    0.8589   -1.5471 C   0  0  0  0  0  0  0  0  0  0  0  0
    1.5769    1.2540   -0.0730 C   0  0  2  0  0  0  0  0  0  0  0  0
    2.0329   -0.3172    0.7776 S   0  0  0  0  0  0  0  0  0  0  0  0
    1.1040   -1.4074    0.4882 O   0  0  0  0  0  0  0  0  0  0  0  0
    1.8964    0.0624    2.2408 O   0  0  0  0  0  0  0  0  0  0  0  0
    3.6890   -0.6581    0.4341 N   0  0  0  0  0  0  0  0  0  0  0  0
    4.4681    0.4517    0.9792 C   0  0  0  0  0  0  0  0  0  0  0  0
    5.9762    0.2752    0.7410 C   0  0  0  0  0  0  0  0  0  0  0  0
    5.4532    0.0798    2.1175 C   0  0  0  0  0  0  0  0  0  0  0  0
    0.0268    1.0488   -0.1273 C   0  0  0  0  0  0  0  0  0  0  0  0
  1  2  2  0
  2  3  1  0
  3  4  1  0
  4  5  2  0
  5  6  1  0
  5  7  1  0
  7  8  1  0
  8  9  1  0
  2 10  1  0
 10 11  1  0
 11 12  1  0
 12 13  1  0
 13 14  1  1
 14 15  2  0
 14 16  2  0
 14 17  1  0
 17 18  1  0
 18 19  1  0
 19 20  1  0
 13 21  1  0
  8  3  2  0
 21 10  1  0
 20 18  1  0
M  END
>  <zinc_id>  (92) 
ZINC000151426407

>  <smiles>  (92) 
O=C(c1cc(Cl)sc1Cl)N1CC[C@H](S(=O)(=O)NC2CC2)C1

$$$$

     RDKit          3D

 20 22  0  0  0  0  0  0  0  0999 V2000
   -6.4075   -1.0378   -1.5555 C   0  0  0  0  0  0  0  0  0  0  0  0
   -5.2805   -0.3364   -0.8373 C   0  0  0  0  0  0  0  0  0  0  0  0
   -4.4763   -0.8526    0.0878 N   0  0  0  0  0  0  0  0  0  0  0  0
   -3.5581   -0.1185    0.6068 C   0  0  0  0  0  0  0  0  0  0  0  0
   -3.4289    1.1762    0.1964 C   0  0  0  0  0  0  0  0  0  0  0  0
   -2.4635    2.2362    0.6250 C   0  0  0  0  0  0  0  0  0  0  0  0
   -1.3975    1.6269    1.3387 N   0  0  0  0  0  0  0  0  0  0  0  0
   -0.5241    0.7146    0.6377 C   0  0  0  0  0  0  0  0  0  0  0  0
   -0.5898    0.3592   -0.6916 C   0  0  0  0  0  0  0  0  0  0  0  0
    0.4437   -0.5289   -0.8972 C   0  0  0  0  0  0  0  0  0  0  0  0
    1.1154   -0.7114    0.2558 N   0  0  0  0  0  0  0  0  0  0  0  0
    2.2846   -1.5846    0.4517 C   0  0  0  0  0  0  0  0  0  0  0  0
    3.5426   -0.8362    0.1966 C   0  0  0  0  0  0  0  0  0  0  0  0
    4.2359   -0.1449    1.1667 C   0  0  0  0  0  0  0  0  0  0  0  0
    5.4006    0.5523    0.9473 C   0  0  0  0  0  0  0  0  0  0  0  0
    5.9298    0.5757   -0.3201 C   0  0  0  0  0  0  0  0  0  0  0  0
    5.2644   -0.1037   -1.3144 C   0  0  0  0  0  0  0  0  0  0  0  0
    4.0928   -0.8010   -1.0779 C   0  0  0  0  0  0  0  0  0  0  0  0
    0.5166    0.0423    1.1541 N   0  0  0  0  0  0  0  0  0  0  0  0
   -4.7003    1.2641   -0.9706 S   0  0  0  0  0  0  0  0  0  0  0  0
  1  2  1  0
  2  3  2  0
  3  4  1  0
  4  5  2  0
  5  6  1  0
  6  7  1  0
  7  8  1  0
  8  9  1  0
  9 10  2  0
 10 11  1  0
 11 12  1  0
 12 13  1  0
 13 14  2  0
 14 15  1  0
 15 16  2  0
 16 17  1  0
 17 18  2  0
 11 19  1  0
  5 20  1  0
 20  2  1  0
 19  8  2  0
 18 13  1  0
M  END
>  <zinc_id>  (93) 
ZINC000151426408

>  <smiles>  (93) 
Cc1ncc(CNc2ccn(Cc3ccccc3)n2)s1

$$$$

     RDKit          3D

 26 29  0  0  0  0  0  0  0  0999 V2000
    8.1052    1.2678    0.8000 C   0  0  0  0  0  0  0  0  0  0  0  0
    6.8246    0.6661    0.3434 C   0  0  0  0  0  0  0  0  0  0  0  0
    6.6143    0.1333   -0.8748 N   0  0  0  0  0  0  0  0  0  0  0  0
    5.3639   -0.2691   -0.8517 N   0  0  0  0  0  0  0  0  0  0  0  0
    4.7895   -0.0094    0.3287 C   0  0  0  0  0  0  0  0  0  0  0  0
    3.4307   -0.3205    0.6901 C   0  0  0  0  0  0  0  0  0  0  0  0
    2.9528   -0.1061    1.9815 C   0  0  0  0  0  0  0  0  0  0  0  0
    1.6360   -0.3386    2.2960 C   0  0  0  0  0  0  0  0  0  0  0  0
    0.7316   -0.7863    1.3920 C   0  0  0  0  0  0  0  0  0  0  0  0
   -0.6393   -1.0369    1.6897 N   0  0  0  0  0  0  0  0  0  0  0  0
   -1.7925   -0.6241    1.0365 C   0  0  0  0  0  0  0  0  0  0  0  0
   -2.0746   -0.9940   -0.3381 C   0  0  0  0  0  0  0  0  0  0  0  0
   -1.4334   -1.7605   -1.2801 C   0  0  0  0  0  0  0  0  0  0  0  0
   -2.1226   -1.7683   -2.4285 N   0  0  0  0  0  0  0  0  0  0  0  0
   -3.1967   -1.0349   -2.2773 N   0  0  0  0  0  0  0  0  0  0  0  0
   -3.2235   -0.5373   -1.0276 C   0  0  0  0  0  0  0  0  0  0  0  0
   -4.2234    0.3466   -0.4581 C   0  0  0  0  0  0  0  0  0  0  0  0
   -5.0345   -0.1741    0.5648 C   0  0  0  0  0  0  0  0  0  0  0  0
   -6.0532    0.5508    1.1274 C   0  0  0  0  0  0  0  0  0  0  0  0
   -6.3172    1.8197    0.7152 C   0  0  0  0  0  0  0  0  0  0  0  0
   -5.5271    2.3604   -0.2936 C   0  0  0  0  0  0  0  0  0  0  0  0
   -4.5021    1.6260   -0.8608 C   0  0  0  0  0  0  0  0  0  0  0  0
   -3.7476    2.2056   -1.8189 F   0  0  0  0  0  0  0  0  0  0  0  0
    1.2111   -1.0058    0.0990 C   0  0  0  0  0  0  0  0  0  0  0  0
    2.5247   -0.7781   -0.2399 C   0  0  0  0  0  0  0  0  0  0  0  0
    5.7032    0.5680    1.0582 O   0  0  0  0  0  0  0  0  0  0  0  0
  1  2  1  0
  2  3  2  0
  3  4  1  0
  4  5  2  0
  5  6  1  0
  6  7  2  0
  7  8  1  0
  8  9  2  0
  9 10  1  0
 10 11  1  0
 11 12  1  0
 12 13  2  0
 13 14  1  0
 14 15  1  0
 15 16  2  0
 16 17  1  0
 17 18  2  0
 18 19  1  0
 19 20  2  0
 20 21  1  0
 21 22  2  0
 22 23  1  0
  9 24  1  0
 24 25  2  0
  5 26  1  0
 26  2  1  0
 25  6  1  0
 16 12  1  0
 22 17  1  0
M  END
>  <zinc_id>  (94) 
ZINC000151426415

>  <smiles>  (94) 
Cc1nnc(-c2ccc(NCc3c[nH]nc3-c3ccccc3F)cc2)o1

$$$$

     RDKit          3D

 27 30  0  0  0  0  0  0  0  0999 V2000
   -0.4342    1.1480   -2.4122 O   0  0  0  0  0  0  0  0  0  0  0  0
    0.7889    1.3941   -1.6162 C   0  0  1  0  0  0  0  0  0  0  0  0
   -0.1276    1.4983   -0.1577 C   0  0  0  0  0  0  0  0  0  0  0  0
   -0.8465    0.4360   -0.0802 N   0  0  0  0  0  0  0  0  0  0  0  0
   -1.5740   -0.5086    0.4969 C   0  0  0  0  0  0  0  0  0  0  0  0
   -2.9534   -0.0017    0.9061 C   0  0  0  0  0  0  0  0  0  0  0  0
   -3.0624    0.7410    2.0363 C   0  0  0  0  0  0  0  0  0  0  0  0
   -4.3559    1.1731    2.5359 C   0  0  0  0  0  0  0  0  0  0  0  0
   -5.4119    0.7643    1.8036 C   0  0  0  0  0  0  0  0  0  0  0  0
   -6.6943    1.1246    2.1766 F   0  0  0  0  0  0  0  0  0  0  0  0
   -5.3216    0.0334    0.6776 C   0  0  0  0  0  0  0  0  0  0  0  0
   -6.4248   -0.2858   -0.0797 C   0  0  0  0  0  0  0  0  0  0  0  0
   -6.2383   -0.9996   -1.2744 C   0  0  0  0  0  0  0  0  0  0  0  0
   -4.9634   -1.3446   -1.6551 C   0  0  0  0  0  0  0  0  0  0  0  0
   -3.9052   -1.0187   -0.9192 N   0  0  0  0  0  0  0  0  0  0  0  0
   -4.0431   -0.3576    0.2181 C   0  0  0  0  0  0  0  0  0  0  0  0
    1.1490   -0.1423   -1.1932 C   0  0  0  0  0  0  0  0  0  0  0  0
    2.2301   -0.1778   -0.4765 O   0  0  0  0  0  0  0  0  0  0  0  0
    3.5383   -0.1378   -0.3089 C   0  0  0  0  0  0  0  0  0  0  0  0
    3.8999   -0.1209    1.0740 C   0  0  0  0  0  0  0  0  0  0  0  0
    5.2406   -0.0940    1.4873 C   0  0  0  0  0  0  0  0  0  0  0  0
    6.2826   -0.0697    0.5041 C   0  0  0  0  0  0  0  0  0  0  0  0
    5.8749   -0.0979   -0.7960 C   0  0  0  0  0  0  0  0  0  0  0  0
    4.5438   -0.1312   -1.1786 C   0  0  0  0  0  0  0  0  0  0  0  0
    7.0576   -0.1386   -1.5796 O   0  0  0  0  0  0  0  0  0  0  0  0
    8.0901   -0.6939   -0.7092 C   0  0  0  0  0  0  0  0  0  0  0  0
    7.6607   -0.0342    0.5201 O   0  0  0  0  0  0  0  0  0  0  0  0
  2  1  1  6
  2  3  1  0
  3  4  1  0
  4  5  1  0
  5  6  1  0
  6  7  2  0
  7  8  1  0
  8  9  2  0
  9 10  1  0
  9 11  1  0
 11 12  2  0
 12 13  1  0
 13 14  2  0
 14 15  1  0
 15 16  2  0
  2 17  1  0
 17 18  1  0
 18 19  1  0
 19 20  2  0
 20 21  1  0
 21 22  2  0
 22 23  1  0
 23 24  2  0
 23 25  1  0
 25 26  1  0
 26 27  1  0
 16  6  1  0
 24 19  1  0
 16 11  1  0
 27 22  1  0
M  END
>  <zinc_id>  (95) 
ZINC000151426425

>  <smiles>  (95) 
O[C@@H](CNCc1ccc(F)c2cccnc12)COc1ccc2c(c1)OCO2

$$$$

     RDKit          3D

 23 25  0  0  0  0  0  0  0  0999 V2000
    4.1416    0.6255   -1.4068 C   0  0  0  0  0  0  0  0  0  0  0  0
    4.0080   -0.2475   -0.1772 C   0  0  1  0  0  0  0  0  0  0  0  0
    4.9149   -1.4462   -0.2989 C   0  0  0  0  0  0  0  0  0  0  0  0
    6.2362   -1.0161   -0.4184 O   0  0  0  0  0  0  0  0  0  0  0  0
    4.3969    0.5605    1.0265 C   0  0  0  0  0  0  0  0  0  0  0  0
    3.6362    0.1267    2.2373 C   0  0  0  0  0  0  0  0  0  0  0  0
    2.1418    0.2202    2.0774 C   0  0  0  0  0  0  0  0  0  0  0  0
    1.7691    0.1296    0.6741 N   0  0  0  0  0  0  0  0  0  0  0  0
    0.6736    0.8566    0.2149 C   0  0  0  0  0  0  0  0  0  0  0  0
    0.0286    1.5662    0.9642 O   0  0  0  0  0  0  0  0  0  0  0  0
    0.3834    0.6637   -1.3031 C   0  0  1  0  0  0  0  0  0  0  0  0
    0.1096   -0.9249   -1.2243 C   0  0  0  0  0  0  0  0  0  0  0  0
   -1.2803   -1.0690   -0.9636 C   0  0  0  0  0  0  0  0  0  0  0  0
   -1.9237   -2.1426   -1.1383 O   0  0  0  0  0  0  0  0  0  0  0  0
   -1.8033    0.1383   -0.4941 N   0  0  0  0  0  0  0  0  0  0  0  0
   -2.7859    0.3328    0.5603 C   0  0  0  0  0  0  0  0  0  0  0  0
   -4.1673    0.3249    0.0012 C   0  0  0  0  0  0  0  0  0  0  0  0
   -4.9171    1.3827   -0.4694 C   0  0  0  0  0  0  0  0  0  0  0  0
   -6.1158    0.8270   -0.8683 C   0  0  0  0  0  0  0  0  0  0  0  0
   -6.0174   -0.5217   -0.6161 C   0  0  0  0  0  0  0  0  0  0  0  0
   -4.8492   -0.7968   -0.0990 O   0  0  0  0  0  0  0  0  0  0  0  0
   -1.1643    1.1299   -1.2870 C   0  0  0  0  0  0  0  0  0  0  0  0
    2.5843   -0.7199   -0.1392 C   0  0  0  0  0  0  0  0  0  0  0  0
  2  1  1  6
  2  3  1  0
  3  4  1  0
  2  5  1  0
  5  6  1  0
  6  7  1  0
  7  8  1  0
  8  9  1  0
  9 10  2  0
 11  9  1  1
 11 12  1  0
 12 13  1  0
 13 14  2  0
 13 15  1  0
 15 16  1  0
 16 17  1  0
 17 18  2  0
 18 19  1  0
 19 20  2  0
 20 21  1  0
 15 22  1  0
  8 23  1  0
 23  2  1  0
 22 11  1  0
 21 17  1  0
M  END
>  <zinc_id>  (96) 
ZINC000151426438

>  <smiles>  (96) 
C[C@@]1(CO)CCCN(C(=O)[C@H]2CC(=O)N(Cc3ccco3)C2)C1

$$$$

     RDKit          3D

 24 26  0  0  0  0  0  0  0  0999 V2000
    5.7711    2.7958    0.1175 C   0  0  0  0  0  0  0  0  0  0  0  0
    6.0917    2.2370    0.0219 C   0  0  0  0  0  0  0  0  0  0  0  0
    5.9099    1.1913   -0.9068 O   0  0  0  0  0  0  0  0  0  0  0  0
    4.6754    0.5097   -0.8938 C   0  0  0  0  0  0  0  0  0  0  0  0
    4.4458   -0.5277   -1.7878 C   0  0  0  0  0  0  0  0  0  0  0  0
    3.1991   -1.1669   -1.7263 C   0  0  0  0  0  0  0  0  0  0  0  0
    2.2428   -0.7966   -0.8320 C   0  0  0  0  0  0  0  0  0  0  0  0
    1.0135   -1.4168   -0.7613 N   0  0  0  0  0  0  0  0  0  0  0  0
   -0.0573   -1.1196    0.1247 C   0  0  0  0  0  0  0  0  0  0  0  0
    0.1734   -0.1742    0.9276 O   0  0  0  0  0  0  0  0  0  0  0  0
   -1.2757   -1.8497    0.0811 N   0  0  0  0  0  0  0  0  0  0  0  0
   -1.4086   -2.9093   -0.8698 C   0  0  0  0  0  0  0  0  0  0  0  0
   -2.8824   -3.0661   -1.1158 C   0  0  0  0  0  0  0  0  0  0  0  0
   -3.3271   -1.7390   -1.2199 O   0  0  0  0  0  0  0  0  0  0  0  0
   -3.7683   -1.4226    0.2255 C   0  0  2  0  0  0  0  0  0  0  0  0
   -3.7820    0.1845    0.0989 C   0  0  0  0  0  0  0  0  0  0  0  0
   -2.9403    1.0117   -0.4651 C   0  0  0  0  0  0  0  0  0  0  0  0
   -3.3970    2.2562   -0.3008 N   0  0  0  0  0  0  0  0  0  0  0  0
   -4.5260    2.1983    0.3676 N   0  0  0  0  0  0  0  0  0  0  0  0
   -5.3146    3.3371    0.7359 C   0  0  0  0  0  0  0  0  0  0  0  0
   -4.8189    0.9064    0.6480 C   0  0  0  0  0  0  0  0  0  0  0  0
   -2.2884   -1.5368    0.9489 C   0  0  0  0  0  0  0  0  0  0  0  0
    2.5242    0.2310    0.0237 C   0  0  0  0  0  0  0  0  0  0  0  0
    3.7399    0.8663   -0.0244 N   0  0  0  0  0  0  0  0  0  0  0  0
  1  2  1  0
  2  3  1  0
  3  4  1  0
  4  5  2  0
  5  6  1  0
  6  7  2  0
  7  8  1  0
  8  9  1  0
  9 10  2  0
  9 11  1  0
 11 12  1  0
 12 13  1  0
 13 14  1  0
 14 15  1  0
 15 16  1  6
 16 17  1  0
 17 18  2  0
 18 19  1  0
 19 20  1  0
 19 21  1  0
 15 22  1  0
  7 23  1  0
 23 24  2  0
 24  4  1  0
 22 11  1  0
 21 16  2  0
M  END
>  <zinc_id>  (97) 
ZINC000151426455

>  <smiles>  (97) 
CCOc1ccc(NC(=O)N2CCO[C@H](c3cnn(C)c3)C2)cn1

$$$$

     RDKit          3D

 21 23  0  0  0  0  0  0  0  0999 V2000
    1.0265   -1.5535   -1.7668 O   0  0  0  0  0  0  0  0  0  0  0  0
    1.2563   -0.7359   -1.2006 C   0  0  0  0  0  0  0  0  0  0  0  0
    2.6630   -0.5363   -0.7548 C   0  0  0  0  0  0  0  0  0  0  0  0
    3.5634    0.1452   -1.4654 C   0  0  0  0  0  0  0  0  0  0  0  0
    4.8240    0.2661   -0.9587 C   0  0  0  0  0  0  0  0  0  0  0  0
    6.1754    1.1210   -1.7225 Cl  0  0  0  0  0  0  0  0  0  0  0  0
    4.7196   -0.5843    0.5140 S   0  0  0  0  0  0  0  0  0  0  0  0
    3.0827   -1.0644    0.4380 C   0  0  0  0  0  0  0  0  0  0  0  0
    2.1337   -2.0113    1.5988 Cl  0  0  0  0  0  0  0  0  0  0  0  0
    0.2812    0.2123   -0.8270 N   0  0  0  0  0  0  0  0  0  0  0  0
    0.5581    1.3785   -0.0311 C   0  0  0  0  0  0  0  0  0  0  0  0
   -0.7147    1.6620    0.7235 C   0  0  0  0  0  0  0  0  0  0  0  0
   -1.6293    0.4169    0.3890 C   0  0  1  0  0  0  0  0  0  0  0  0
   -3.2070    1.3193    0.0257 S   0  0  0  0  0  0  0  0  0  0  0  0
   -3.6001    2.0042    1.2980 O   0  0  0  0  0  0  0  0  0  0  0  0
   -3.0694    2.2172   -1.1232 O   0  0  0  0  0  0  0  0  0  0  0  0
   -4.4047    0.1214   -0.3899 N   0  0  0  0  0  0  0  0  0  0  0  0
   -4.6506   -0.7877    0.6874 C   0  0  0  0  0  0  0  0  0  0  0  0
   -3.4602   -1.6121    1.1903 C   0  0  0  0  0  0  0  0  0  0  0  0
   -4.4150   -2.2621    0.2792 C   0  0  0  0  0  0  0  0  0  0  0  0
   -1.1329    0.2835   -1.1043 C   0  0  0  0  0  0  0  0  0  0  0  0
  1  2  2  0
  2  3  1  0
  3  4  1  0
  4  5  2  0
  5  6  1  0
  5  7  1  0
  7  8  1  0
  8  9  1  0
  2 10  1  0
 10 11  1  0
 11 12  1  0
 12 13  1  0
 13 14  1  6
 14 15  2  0
 14 16  2  0
 14 17  1  0
 17 18  1  0
 18 19  1  0
 19 20  1  0
 13 21  1  0
  8  3  2  0
 21 10  1  0
 20 18  1  0
M  END
>  <zinc_id>  (98) 
ZINC000151426479

>  <smiles>  (98) 
O=C(c1cc(Cl)sc1Cl)N1CC[C@@H](S(=O)(=O)NC2CC2)C1

$$$$

     RDKit          3D

 23 25  0  0  0  0  0  0  0  0999 V2000
   -1.1964    3.8730    2.9597 C   0  0  0  0  0  0  0  0  0  0  0  0
   -1.2718    3.2011    1.8223 O   0  0  0  0  0  0  0  0  0  0  0  0
   -0.1095    2.6353    1.3271 C   0  0  0  0  0  0  0  0  0  0  0  0
    0.9380    2.7500    1.9154 O   0  0  0  0  0  0  0  0  0  0  0  0
   -0.2326    1.8359   -0.0471 C   0  0  2  0  0  0  0  0  0  0  0  0
   -1.3313    0.7434    0.4997 C   0  0  0  0  0  0  0  0  0  0  0  0
   -1.5533    0.1430   -1.0151 C   0  0  2  0  0  0  0  0  0  0  0  0
   -2.7670   -0.8128   -0.7317 C   0  0  0  0  0  0  0  0  0  0  0  0
   -3.4836   -0.8638    0.3713 C   0  0  0  0  0  0  0  0  0  0  0  0
   -4.5263   -1.7500    0.4964 C   0  0  0  0  0  0  0  0  0  0  0  0
   -4.8061   -2.5833   -0.5560 C   0  0  0  0  0  0  0  0  0  0  0  0
   -4.0920   -2.5750   -1.7327 C   0  0  0  0  0  0  0  0  0  0  0  0
   -3.0443   -1.6392   -1.7756 C   0  0  0  0  0  0  0  0  0  0  0  0
   -0.4074   -1.0279   -0.7879 C   0  0  0  0  0  0  0  0  0  0  0  0
    0.8015   -0.3710   -0.4542 N   0  0  0  0  0  0  0  0  0  0  0  0
    1.9779   -1.0470   -0.8632 C   0  0  0  0  0  0  0  0  0  0  0  0
    1.8386   -2.1736   -1.4877 O   0  0  0  0  0  0  0  0  0  0  0  0
    3.3449   -0.5545   -0.6258 C   0  0  0  0  0  0  0  0  0  0  0  0
    4.4351   -1.2248   -1.0296 C   0  0  0  0  0  0  0  0  0  0  0  0
    5.6122   -0.7162   -0.7783 N   0  0  0  0  0  0  0  0  0  0  0  0
    5.2603    0.7152    0.0297 S   0  0  0  0  0  0  0  0  0  0  0  0
    3.5780    0.5976    0.0103 N   0  0  0  0  0  0  0  0  0  0  0  0
    1.0352    0.8446    0.2173 C   0  0  0  0  0  0  0  0  0  0  0  0
  1  2  1  0
  2  3  1  0
  3  4  2  0
  5  3  1  1
  5  6  1  0
  6  7  1  0
  7  8  1  1
  8  9  2  0
  9 10  1  0
 10 11  2  0
 11 12  1  0
 12 13  2  0
  7 14  1  0
 14 15  1  0
 15 16  1  0
 16 17  2  0
 16 18  1  0
 18 19  1  0
 19 20  2  0
 20 21  1  0
 21 22  1  0
 15 23  1  0
 23  5  1  0
 13  8  1  0
 22 18  2  0
M  END
>  <zinc_id>  (99) 
ZINC000151426484

>  <smiles>  (99) 
COC(=O)[C@@H]1C[C@H](c2ccccc2)CN(C(=O)c2cnsn2)C1

$$$$

     RDKit          3D

 28 30  0  0  0  0  0  0  0  0999 V2000
   -2.5939    4.5275   -0.7747 C   0  0  0  0  0  0  0  0  0  0  0  0
   -1.7671    3.3470   -0.5069 C   0  0  0  0  0  0  0  0  0  0  0  0
   -0.8581    3.1172   -1.3085 O   0  0  0  0  0  0  0  0  0  0  0  0
   -2.0351    2.5573    0.6100 N   0  0  0  0  0  0  0  0  0  0  0  0
   -3.1137    2.8923    1.5175 C   0  0  0  0  0  0  0  0  0  0  0  0
   -3.8402    1.9095    2.0652 C   0  0  0  0  0  0  0  0  0  0  0  0
   -3.4813    0.5442    1.7288 C   0  0  0  0  0  0  0  0  0  0  0  0
   -4.4082   -0.4854    1.9658 C   0  0  0  0  0  0  0  0  0  0  0  0
   -4.2078   -1.7113    1.3668 C   0  0  0  0  0  0  0  0  0  0  0  0
   -3.1173   -1.9590    0.5366 C   0  0  0  0  0  0  0  0  0  0  0  0
   -2.2342   -0.9332    0.3357 C   0  0  0  0  0  0  0  0  0  0  0  0
   -2.4334    0.2603    0.9281 C   0  0  0  0  0  0  0  0  0  0  0  0
   -1.2704    1.3410    1.0049 C   0  0  1  0  0  0  0  0  0  0  0  0
   -0.5242    0.9715   -0.3548 C   0  0  0  0  0  0  0  0  0  0  0  0
    0.3373   -0.1714   -0.0106 C   0  0  0  0  0  0  0  0  0  0  0  0
    0.4585   -0.5017    1.2252 O   0  0  0  0  0  0  0  0  0  0  0  0
    1.0580   -0.9549   -0.9335 N   0  0  0  0  0  0  0  0  0  0  0  0
    1.8235   -2.0573   -0.4494 C   0  0  0  0  0  0  0  0  0  0  0  0
    3.2133   -1.7114   -0.0961 C   0  0  0  0  0  0  0  0  0  0  0  0
    3.8763   -0.5683   -0.1207 N   0  0  0  0  0  0  0  0  0  0  0  0
    5.1173   -0.7469    0.2910 N   0  0  0  0  0  0  0  0  0  0  0  0
    5.2278   -2.0626    0.5844 C   0  0  0  0  0  0  0  0  0  0  0  0
    6.4484   -2.7583    1.0921 C   0  0  0  0  0  0  0  0  0  0  0  0
    4.0640   -2.6208    0.3416 O   0  0  0  0  0  0  0  0  0  0  0  0
    1.0583   -0.6570   -2.3350 C   0  0  0  0  0  0  0  0  0  0  0  0
    1.9128   -1.6633   -3.1181 C   0  0  0  0  0  0  0  0  0  0  0  0
   -0.3057   -0.6696   -2.9871 C   0  0  0  0  0  0  0  0  0  0  0  0
    1.5952    0.7645   -2.5983 C   0  0  0  0  0  0  0  0  0  0  0  0
  1  2  1  0
  2  3  2  0
  2  4  1  0
  4  5  1  0
  5  6  2  0
  6  7  1  0
  7  8  2  0
  8  9  1  0
  9 10  2  0
 10 11  1  0
 11 12  2  0
 12 13  1  0
 13 14  1  6
 14 15  1  0
 15 16  2  0
 15 17  1  0
 17 18  1  0
 18 19  1  0
 19 20  2  0
 20 21  1  0
 21 22  2  0
 22 23  1  0
 22 24  1  0
 17 25  1  0
 25 26  1  0
 25 27  1  0
 25 28  1  0
 13  4  1  0
 24 19  1  0
 12  7  1  0
M  END
>  <zinc_id>  (100) 
ZINC000151426485

>  <smiles>  (100) 
CC(=O)N1C=Cc2ccccc2[C@H]1CC(=O)N(Cc1nnc(C)o1)C(C)(C)C

$$$$
